xflr5 v6.61

AerospaceSystemsPlanform
T1-10.0 m/s-Panel-Inviscid
QInf  =   10.000000 m/s
Alpha =   10.000000
Beta  =    0.000°
Phi   =    0.000°
Ctrl  =    0.000
CL    =    0.962596
Cy    =   -0.000000
Cd    =    0.041318     ICd   =    0.041318     PCd   =    0.000000
Cl   = -3.27484e-15
Cm   =    -1.13617
ICn   =    0.000000     PCn   =    0.000000 
XCP   =    5.989494     YCP   =    0.000000     ZCP   =    0.802117  
XNP   =    0.000000
Bending = 27633.007256

Main Wing
  y-span        Chord      Ai         Cl        PCd          ICd        CmGeom    CmAirf@chord/4    XTrtop    XTrBot      XCP       BM
  -16.0545     2.0460    -7.927    0.332680    0.000000    0.046316   -2.010646    0.013589     0.0000    0.0000    0.2155    0.0000
  -15.9449     2.0818    -6.619    0.552528    0.000000    0.064097   -2.959404   -0.012492     0.0000    0.0000    0.2690    0.2594
  -15.7263     2.1531    -5.430    0.745465    0.000000    0.070825   -3.654509   -0.013546     0.0000    0.0000    0.2643    3.3915
  -15.4003     2.2595    -4.467    0.891304    0.000000    0.069576   -4.100053   -0.025858     0.0000    0.0000    0.2752   17.0927
  -14.9690     2.4002    -3.720    0.991517    0.000000    0.064384   -4.224044   -0.039047     0.0000    0.0000    0.2856   56.0512
  -14.4356     2.5743    -3.149    1.053165    0.000000    0.057836   -4.085098   -0.049474     0.0000    0.0000    0.2932   143.0540
  -13.8035     2.7805    -2.735    1.085262    0.000000    0.051723   -3.775277   -0.056558     0.0000    0.0000    0.2982   309.4252
  -13.0771     3.0176    -2.461    1.096288    0.000000    0.046993   -3.377433   -0.060998     0.0000    0.0000    0.3017   594.9604
  -12.2614     3.2838    -2.303    1.092813    0.000000    0.043802   -2.950369   -0.063673     0.0000    0.0000    0.3043   1047.4575
  -11.3620     3.5773    -2.231    1.079377    0.000000    0.041883   -2.530410   -0.065255     0.0000    0.0000    0.3064   1721.8264
  -10.3849     3.8961    -2.222    1.058964    0.000000    0.040912   -2.137685   -0.066200     0.0000    0.0000    0.3084   2678.6983
   -9.3369     4.2381    -2.255    1.033361    0.000000    0.040502   -1.781617   -0.066762     0.0000    0.0000    0.3104   3982.4801
   -8.2251     4.6009    -2.317    1.003670    0.000000    0.040386   -1.465405   -0.067143     0.0000    0.0000    0.3127   5698.8060
   -7.0571     4.9821    -2.396    0.970485    0.000000    0.040337   -1.188813   -0.067502     0.0000    0.0000    0.3152   7891.4503
   -5.8409     5.3789    -2.477    0.933982    0.000000    0.040079   -0.949697   -0.068020     0.0000    0.0000    0.3185   10618.7851
   -4.5849     5.7888    -2.549    0.894140    0.000000    0.039406   -0.745371   -0.069050     0.0000    0.0000    0.3228   13929.8883
   -3.2975     6.2089    -2.592    0.850537    0.000000    0.037938   -0.573246   -0.071232     0.0000    0.0000    0.3293   17860.5495
   -1.9875     6.6364    -2.565    0.801942    0.000000    0.034979   -0.431776   -0.075974     0.0000    0.0000    0.3401   22429.2527
   -0.6640     7.0683    -2.342    0.738453    0.000000    0.027259   -0.322309   -0.087979     0.0000    0.0000    0.3629   27633.0073
    0.6640     7.0683    -2.342    0.738453    0.000000    0.027259   -0.322309   -0.087979     0.0000    0.0000    0.3629   27633.0073
    1.9875     6.6364    -2.565    0.801942    0.000000    0.034979   -0.431776   -0.075974     0.0000    0.0000    0.3401   22429.2527
    3.2975     6.2089    -2.592    0.850537    0.000000    0.037938   -0.573246   -0.071232     0.0000    0.0000    0.3293   17860.5495
    4.5849     5.7888    -2.549    0.894140    0.000000    0.039406   -0.745371   -0.069050     0.0000    0.0000    0.3228   13929.8883
    5.8409     5.3789    -2.477    0.933982    0.000000    0.040079   -0.949697   -0.068020     0.0000    0.0000    0.3185   10618.7851
    7.0571     4.9821    -2.396    0.970485    0.000000    0.040337   -1.188813   -0.067502     0.0000    0.0000    0.3152   7891.4503
    8.2251     4.6009    -2.317    1.003670    0.000000    0.040386   -1.465405   -0.067143     0.0000    0.0000    0.3127   5698.8060
    9.3369     4.2381    -2.255    1.033361    0.000000    0.040502   -1.781617   -0.066762     0.0000    0.0000    0.3104   3982.4801
   10.3849     3.8961    -2.222    1.058964    0.000000    0.040912   -2.137685   -0.066200     0.0000    0.0000    0.3084   2678.6983
   11.3620     3.5773    -2.231    1.079377    0.000000    0.041883   -2.530410   -0.065255     0.0000    0.0000    0.3064   1721.8264
   12.2614     3.2838    -2.303    1.092813    0.000000    0.043802   -2.950369   -0.063673     0.0000    0.0000    0.3043   1047.4575
   13.0771     3.0176    -2.461    1.096288    0.000000    0.046993   -3.377433   -0.060998     0.0000    0.0000    0.3017   594.9604
   13.8035     2.7805    -2.735    1.085262    0.000000    0.051723   -3.775277   -0.056558     0.0000    0.0000    0.2982   309.4252
   14.4356     2.5743    -3.149    1.053165    0.000000    0.057836   -4.085098   -0.049474     0.0000    0.0000    0.2932   143.0540
   14.9690     2.4002    -3.720    0.991517    0.000000    0.064384   -4.224044   -0.039047     0.0000    0.0000    0.2856   56.0512
   15.4003     2.2595    -4.467    0.891304    0.000000    0.069576   -4.100053   -0.025858     0.0000    0.0000    0.2752   17.0927
   15.7263     2.1531    -5.430    0.745465    0.000000    0.070825   -3.654509   -0.013546     0.0000    0.0000    0.2643    3.3915
   15.9449     2.0818    -6.619    0.552528    0.000000    0.064097   -2.959404   -0.012492     0.0000    0.0000    0.2690    0.2594
   16.0545     2.0460    -7.927    0.332680    0.000000    0.046316   -2.010646    0.013589     0.0000    0.0000    0.2155    0.0000


Main Wing Cp Coefficients
 Panel     CtrlPt.x        CtrlPt.y        CtrlPt.z       Nx      Ny       Nz        Area       Cp
Main WingCp Coefficients
Strip 1
  13       1.181e+01      -1.599e+01       1.402e+00          -0.175          -0.135          -0.975       1.660e-03         -1.3375
  14       1.175e+01      -1.599e+01       1.409e+00          -0.095          -0.113          -0.989       4.826e-03         -1.3916
  15       1.164e+01      -1.599e+01       1.411e+00           0.039          -0.073          -0.997       7.700e-03         -1.2132
  16       1.148e+01      -1.599e+01       1.393e+00           0.162          -0.032          -0.986       1.029e-02         -0.8215
  17       1.128e+01      -1.600e+01       1.354e+00           0.213          -0.013          -0.977       1.232e-02         -0.4897
  18       1.105e+01      -1.600e+01       1.308e+00           0.183          -0.026          -0.983       1.343e-02         -0.3371
  19       1.080e+01      -1.600e+01       1.274e+00           0.093          -0.065          -0.993       1.364e-02         -0.2700
  20       1.056e+01      -1.601e+01       1.261e+00           0.017          -0.101          -0.995       1.319e-02         -0.2182
  21       1.033e+01      -1.601e+01       1.263e+00          -0.038          -0.128          -0.991       1.205e-02         -0.1711
  22       1.013e+01      -1.600e+01       1.275e+00          -0.094          -0.158          -0.983       1.024e-02         -0.1088
  23       9.969e+00      -1.600e+01       1.297e+00          -0.178          -0.204          -0.963       7.894e-03          0.0145
  24       9.855e+00      -1.600e+01       1.328e+00          -0.372          -0.310          -0.875       5.353e-03          0.2304
  25       9.796e+00      -1.600e+01       1.373e+00          -0.776          -0.507          -0.376       3.901e-03         -0.0820
  26       9.796e+00      -1.599e+01       1.427e+00          -0.769          -0.429           0.475       3.743e-03         -1.7170
  27       9.855e+00      -1.599e+01       1.471e+00          -0.372          -0.154           0.915       5.339e-03         -2.2459
  28       9.969e+00      -1.598e+01       1.501e+00          -0.173          -0.030           0.985       7.851e-03         -1.1825
  29       1.013e+01      -1.598e+01       1.522e+00          -0.091           0.017           0.996       1.018e-02         -0.7494
  30       1.033e+01      -1.598e+01       1.535e+00          -0.040           0.045           0.998       1.198e-02         -0.5881
  31       1.056e+01      -1.598e+01       1.539e+00          -0.002           0.064           0.998       1.312e-02         -0.5138
  32       1.080e+01      -1.598e+01       1.535e+00           0.039           0.083           0.996       1.352e-02         -0.4792
  33       1.105e+01      -1.598e+01       1.519e+00           0.090           0.104           0.990       1.318e-02         -0.4695
  34       1.128e+01      -1.599e+01       1.494e+00           0.131           0.120           0.984       1.208e-02         -0.5570
  35       1.148e+01      -1.599e+01       1.465e+00           0.159           0.129           0.979       1.027e-02         -0.8503
  36       1.164e+01      -1.599e+01       1.437e+00           0.180           0.136           0.974       7.827e-03         -1.2943
  37       1.175e+01      -1.599e+01       1.415e+00           0.201           0.142           0.969       4.911e-03         -1.5135
  38       1.181e+01      -1.599e+01       1.403e+00           0.215           0.146           0.966       1.675e-03         -1.5510
Strip 2
  39       1.178e+01      -1.588e+01       1.393e+00          -0.175          -0.135          -0.975       5.057e-03         -0.5312
  40       1.172e+01      -1.588e+01       1.400e+00          -0.095          -0.113          -0.989       1.470e-02         -0.5366
  41       1.161e+01      -1.588e+01       1.401e+00           0.039          -0.073          -0.997       2.345e-02         -0.4471
  42       1.144e+01      -1.588e+01       1.383e+00           0.162          -0.032          -0.986       3.134e-02         -0.3069
  43       1.124e+01      -1.589e+01       1.344e+00           0.213          -0.013          -0.977       3.751e-02         -0.2223
  44       1.100e+01      -1.589e+01       1.297e+00           0.183          -0.026          -0.983       4.089e-02         -0.2242
  45       1.076e+01      -1.589e+01       1.262e+00           0.093          -0.065          -0.993       4.154e-02         -0.2217
  46       1.051e+01      -1.590e+01       1.249e+00           0.017          -0.101          -0.995       4.017e-02         -0.1736
  47       1.028e+01      -1.590e+01       1.251e+00          -0.038          -0.128          -0.991       3.669e-02         -0.1068
  48       1.007e+01      -1.589e+01       1.264e+00          -0.094          -0.158          -0.983       3.118e-02         -0.0111
  49       9.905e+00      -1.589e+01       1.286e+00          -0.178          -0.204          -0.963       2.405e-02          0.1584
  50       9.789e+00      -1.589e+01       1.317e+00          -0.372          -0.310          -0.875       1.631e-02          0.4095
  51       9.730e+00      -1.589e+01       1.363e+00          -0.775          -0.507          -0.377       1.189e-02         -0.1345
  52       9.730e+00      -1.588e+01       1.418e+00          -0.769          -0.429           0.474       1.140e-02         -2.2851
  53       9.789e+00      -1.588e+01       1.463e+00          -0.373          -0.154           0.915       1.625e-02         -2.8249
  54       9.905e+00      -1.588e+01       1.493e+00          -0.173          -0.031           0.985       2.391e-02         -1.4874
  55       1.007e+01      -1.587e+01       1.514e+00          -0.091           0.017           0.996       3.101e-02         -0.8997
  56       1.028e+01      -1.587e+01       1.527e+00          -0.040           0.045           0.998       3.649e-02         -0.6547
  57       1.051e+01      -1.587e+01       1.532e+00          -0.002           0.064           0.998       3.996e-02         -0.5429
  58       1.076e+01      -1.587e+01       1.527e+00           0.039           0.083           0.996       4.118e-02         -0.4930
  59       1.100e+01      -1.587e+01       1.512e+00           0.090           0.104           0.990       4.013e-02         -0.4626
  60       1.124e+01      -1.588e+01       1.486e+00           0.131           0.120           0.984       3.681e-02         -0.4774
  61       1.144e+01      -1.588e+01       1.456e+00           0.159           0.129           0.979       3.127e-02         -0.5833
  62       1.161e+01      -1.588e+01       1.428e+00           0.180           0.136           0.974       2.384e-02         -0.7261
  63       1.172e+01      -1.588e+01       1.406e+00           0.201           0.142           0.969       1.496e-02         -0.7325
  64       1.178e+01      -1.588e+01       1.394e+00           0.215           0.146           0.966       5.102e-03         -0.6865
Strip 3
  65       1.172e+01      -1.567e+01       1.374e+00          -0.175          -0.135          -0.975       8.680e-03          0.1129
  66       1.166e+01      -1.567e+01       1.381e+00          -0.095          -0.113          -0.989       2.522e-02          0.1252
  67       1.154e+01      -1.567e+01       1.383e+00           0.039          -0.073          -0.997       4.024e-02          0.1306
  68       1.137e+01      -1.567e+01       1.364e+00           0.162          -0.032          -0.986       5.376e-02          0.0804
  69       1.115e+01      -1.567e+01       1.323e+00           0.213          -0.013          -0.977       6.435e-02         -0.0066
  70       1.091e+01      -1.567e+01       1.274e+00           0.183          -0.026          -0.983       7.014e-02         -0.1044
  71       1.066e+01      -1.568e+01       1.239e+00           0.093          -0.065          -0.993       7.127e-02         -0.1398
  72       1.040e+01      -1.568e+01       1.225e+00           0.017          -0.101          -0.995       6.893e-02         -0.0885
  73       1.016e+01      -1.568e+01       1.227e+00          -0.038          -0.128          -0.991       6.295e-02          0.0070
  74       9.949e+00      -1.568e+01       1.240e+00          -0.094          -0.158          -0.983       5.351e-02          0.1486
  75       9.778e+00      -1.568e+01       1.263e+00          -0.178          -0.204          -0.963       4.128e-02          0.3626
  76       9.659e+00      -1.567e+01       1.295e+00          -0.372          -0.309          -0.875       2.801e-02          0.5985
  77       9.597e+00      -1.567e+01       1.343e+00          -0.775          -0.507          -0.379       2.041e-02         -0.1823
  78       9.597e+00      -1.566e+01       1.400e+00          -0.769          -0.430           0.473       1.954e-02         -2.7431
  79       9.659e+00      -1.566e+01       1.446e+00          -0.373          -0.154           0.915       2.787e-02         -3.3154
  80       9.778e+00      -1.566e+01       1.478e+00          -0.173          -0.031           0.985       4.100e-02         -1.7883
  81       9.949e+00      -1.566e+01       1.500e+00          -0.091           0.017           0.996       5.319e-02         -1.0925
  82       1.016e+01      -1.565e+01       1.513e+00          -0.040           0.045           0.998       6.261e-02         -0.7655
  83       1.040e+01      -1.565e+01       1.518e+00          -0.002           0.064           0.998       6.856e-02         -0.5950
  84       1.066e+01      -1.565e+01       1.513e+00           0.039           0.083           0.996       7.066e-02         -0.5018
  85       1.091e+01      -1.566e+01       1.497e+00           0.090           0.104           0.990       6.888e-02         -0.4126
  86       1.115e+01      -1.566e+01       1.470e+00           0.131           0.120           0.984       6.317e-02         -0.3131
  87       1.137e+01      -1.566e+01       1.440e+00           0.159           0.129           0.979       5.367e-02         -0.2381
  88       1.154e+01      -1.566e+01       1.410e+00           0.180           0.136           0.974       4.092e-02         -0.1865
  89       1.166e+01      -1.567e+01       1.388e+00           0.201           0.142           0.969       2.567e-02         -0.0892
  90       1.172e+01      -1.567e+01       1.375e+00           0.215           0.145           0.966       8.757e-03         -0.0103
Strip 4
  91       1.163e+01      -1.534e+01       1.346e+00          -0.175          -0.135          -0.975       1.267e-02          0.2522
  92       1.156e+01      -1.534e+01       1.353e+00          -0.095          -0.113          -0.989       3.681e-02          0.2728
  93       1.144e+01      -1.534e+01       1.355e+00           0.039          -0.073          -0.997       5.871e-02          0.2797
  94       1.126e+01      -1.534e+01       1.335e+00           0.162          -0.032          -0.986       7.842e-02          0.2127
  95       1.103e+01      -1.535e+01       1.292e+00           0.213          -0.013          -0.977       9.386e-02          0.0999
  96       1.078e+01      -1.535e+01       1.241e+00           0.183          -0.026          -0.983       1.023e-01         -0.0214
  97       1.051e+01      -1.535e+01       1.204e+00           0.093          -0.065          -0.993       1.040e-01         -0.0659
  98       1.024e+01      -1.535e+01       1.189e+00           0.017          -0.101          -0.995       1.006e-01         -0.0066
  99       9.991e+00      -1.535e+01       1.191e+00          -0.038          -0.128          -0.991       9.187e-02          0.1063
 100       9.769e+00      -1.535e+01       1.205e+00          -0.094          -0.158          -0.983       7.809e-02          0.2612
 101       9.589e+00      -1.535e+01       1.229e+00          -0.178          -0.204          -0.963       6.027e-02          0.4700
 102       9.464e+00      -1.535e+01       1.263e+00          -0.371          -0.309          -0.876       4.091e-02          0.6545
 103       9.399e+00      -1.534e+01       1.313e+00          -0.774          -0.506          -0.381       2.981e-02         -0.3050
 104       9.399e+00      -1.534e+01       1.373e+00          -0.770          -0.430           0.471       2.848e-02         -3.0823
 105       9.464e+00      -1.534e+01       1.421e+00          -0.373          -0.154           0.915       4.062e-02         -3.6430
 106       9.589e+00      -1.533e+01       1.455e+00          -0.173          -0.031           0.984       5.980e-02         -1.9875
 107       9.769e+00      -1.533e+01       1.478e+00          -0.091           0.017           0.996       7.759e-02         -1.2427
 108       9.991e+00      -1.533e+01       1.492e+00          -0.040           0.045           0.998       9.135e-02         -0.8832
 109       1.024e+01      -1.533e+01       1.497e+00          -0.002           0.064           0.998       1.000e-01         -0.6776
 110       1.051e+01      -1.533e+01       1.492e+00           0.039           0.083           0.996       1.031e-01         -0.5493
 111       1.078e+01      -1.533e+01       1.475e+00           0.090           0.104           0.990       1.005e-01         -0.4237
 112       1.103e+01      -1.533e+01       1.447e+00           0.131           0.120           0.984       9.220e-02         -0.2858
 113       1.126e+01      -1.534e+01       1.415e+00           0.159           0.129           0.979       7.833e-02         -0.1737
 114       1.144e+01      -1.534e+01       1.384e+00           0.180           0.136           0.974       5.972e-02         -0.0891
 115       1.156e+01      -1.534e+01       1.360e+00           0.201           0.142           0.969       3.747e-02          0.0298
 116       1.163e+01      -1.534e+01       1.347e+00           0.215           0.145           0.966       1.278e-02          0.1174
Strip 5
 117       1.150e+01      -1.491e+01       1.308e+00          -0.175          -0.135          -0.975       1.715e-02          0.3009
 118       1.143e+01      -1.491e+01       1.316e+00          -0.095          -0.113          -0.989       4.983e-02          0.3264
 119       1.130e+01      -1.491e+01       1.318e+00           0.039          -0.073          -0.997       7.944e-02          0.3381
 120       1.111e+01      -1.491e+01       1.297e+00           0.162          -0.032          -0.986       1.061e-01          0.2705
 121       1.087e+01      -1.492e+01       1.251e+00           0.213          -0.013          -0.977       1.270e-01          0.1545
 122       1.061e+01      -1.492e+01       1.197e+00           0.183          -0.026          -0.983       1.384e-01          0.0313
 123       1.032e+01      -1.492e+01       1.158e+00           0.093          -0.065          -0.993       1.407e-01         -0.0109
 124       1.003e+01      -1.492e+01       1.142e+00           0.017          -0.101          -0.995       1.361e-01          0.0536
 125       9.766e+00      -1.492e+01       1.144e+00          -0.038          -0.128          -0.991       1.243e-01          0.1698
 126       9.530e+00      -1.492e+01       1.159e+00          -0.094          -0.158          -0.983       1.057e-01          0.3220
 127       9.340e+00      -1.492e+01       1.184e+00          -0.178          -0.204          -0.963       8.161e-02          0.5204
 128       9.206e+00      -1.492e+01       1.221e+00          -0.371          -0.309          -0.876       5.543e-02          0.6705
 129       9.137e+00      -1.491e+01       1.274e+00          -0.773          -0.506          -0.383       4.040e-02         -0.3953
 130       9.137e+00      -1.491e+01       1.337e+00          -0.771          -0.431           0.468       3.849e-02         -3.3049
 131       9.206e+00      -1.491e+01       1.389e+00          -0.374          -0.155           0.915       5.490e-02         -3.8545
 132       9.340e+00      -1.490e+01       1.424e+00          -0.173          -0.031           0.984       8.088e-02         -2.1121
 133       9.530e+00      -1.490e+01       1.449e+00          -0.091           0.017           0.996       1.050e-01         -1.3389
 134       9.766e+00      -1.490e+01       1.464e+00          -0.040           0.045           0.998       1.236e-01         -0.9676
 135       1.003e+01      -1.490e+01       1.469e+00          -0.002           0.064           0.998       1.354e-01         -0.7503
 136       1.032e+01      -1.490e+01       1.464e+00           0.039           0.083           0.996       1.396e-01         -0.6059
 137       1.061e+01      -1.490e+01       1.445e+00           0.090           0.104           0.990       1.361e-01         -0.4610
 138       1.087e+01      -1.490e+01       1.416e+00           0.131           0.120           0.984       1.248e-01         -0.3032
 139       1.111e+01      -1.491e+01       1.382e+00           0.159           0.129           0.979       1.060e-01         -0.1721
 140       1.130e+01      -1.491e+01       1.349e+00           0.180           0.136           0.974       8.085e-02         -0.0712
 141       1.143e+01      -1.491e+01       1.324e+00           0.201           0.142           0.969       5.073e-02          0.0593
 142       1.150e+01      -1.491e+01       1.309e+00           0.215           0.145           0.966       1.730e-02          0.1521
Strip 6
 143       1.135e+01      -1.438e+01       1.262e+00          -0.175          -0.135          -0.975       2.223e-02          0.3226
 144       1.128e+01      -1.438e+01       1.271e+00          -0.095          -0.113          -0.989       6.458e-02          0.3513
 145       1.113e+01      -1.438e+01       1.273e+00           0.039          -0.073          -0.997       1.029e-01          0.3669
 146       1.093e+01      -1.438e+01       1.250e+00           0.162          -0.032          -0.986       1.374e-01          0.3013
 147       1.068e+01      -1.438e+01       1.201e+00           0.213          -0.013          -0.977       1.644e-01          0.1865
 148       1.039e+01      -1.439e+01       1.143e+00           0.183          -0.026          -0.983       1.792e-01          0.0653
 149       1.008e+01      -1.439e+01       1.100e+00           0.093          -0.065          -0.993       1.822e-01          0.0257
 150       9.776e+00      -1.439e+01       1.083e+00           0.017          -0.101          -0.995       1.764e-01          0.0911
 151       9.488e+00      -1.439e+01       1.086e+00          -0.038          -0.128          -0.991       1.611e-01          0.2056
 152       9.235e+00      -1.439e+01       1.102e+00          -0.094          -0.158          -0.983       1.370e-01          0.3534
 153       9.030e+00      -1.439e+01       1.129e+00          -0.178          -0.204          -0.963       1.058e-01          0.5449
 154       8.887e+00      -1.439e+01       1.168e+00          -0.370          -0.309          -0.876       7.193e-02          0.6766
 155       8.814e+00      -1.438e+01       1.225e+00          -0.772          -0.505          -0.386       5.242e-02         -0.4399
 156       8.814e+00      -1.438e+01       1.293e+00          -0.772          -0.432           0.466       4.981e-02         -3.4246
 157       8.887e+00      -1.438e+01       1.348e+00          -0.374          -0.155           0.914       7.104e-02         -3.9730
 158       9.030e+00      -1.437e+01       1.387e+00          -0.173          -0.031           0.984       1.047e-01         -2.1815
 159       9.235e+00      -1.437e+01       1.413e+00          -0.091           0.017           0.996       1.360e-01         -1.3931
 160       9.488e+00      -1.437e+01       1.429e+00          -0.040           0.045           0.998       1.602e-01         -1.0175
 161       9.776e+00      -1.437e+01       1.435e+00          -0.002           0.064           0.998       1.754e-01         -0.7971
 162       1.008e+01      -1.437e+01       1.429e+00           0.039           0.083           0.996       1.809e-01         -0.6473
 163       1.039e+01      -1.437e+01       1.409e+00           0.090           0.104           0.990       1.764e-01         -0.4935
 164       1.068e+01      -1.437e+01       1.378e+00           0.131           0.120           0.984       1.618e-01         -0.3249
 165       1.093e+01      -1.438e+01       1.341e+00           0.159           0.129           0.979       1.375e-01         -0.1825
 166       1.113e+01      -1.438e+01       1.306e+00           0.180           0.136           0.974       1.048e-01         -0.0720
 167       1.128e+01      -1.438e+01       1.278e+00           0.201           0.142           0.969       6.576e-02          0.0658
 168       1.135e+01      -1.438e+01       1.263e+00           0.215           0.145           0.966       2.243e-02          0.1623
Strip 7
 169       1.117e+01      -1.375e+01       1.207e+00          -0.175          -0.135          -0.975       2.800e-02          0.3338
 170       1.109e+01      -1.375e+01       1.217e+00          -0.095          -0.113          -0.989       8.131e-02          0.3646
 171       1.094e+01      -1.375e+01       1.219e+00           0.039          -0.073          -0.997       1.296e-01          0.3829
 172       1.072e+01      -1.375e+01       1.194e+00           0.162          -0.032          -0.986       1.729e-01          0.3190
 173       1.044e+01      -1.375e+01       1.141e+00           0.213          -0.013          -0.977       2.069e-01          0.2057
 174       1.013e+01      -1.376e+01       1.079e+00           0.183          -0.025          -0.983       2.255e-01          0.0857
 175       9.800e+00      -1.376e+01       1.033e+00           0.094          -0.065          -0.993       2.293e-01          0.0469
 176       9.470e+00      -1.376e+01       1.014e+00           0.017          -0.101          -0.995       2.220e-01          0.1116
 177       9.159e+00      -1.376e+01       1.017e+00          -0.038          -0.128          -0.991       2.029e-01          0.2238
 178       8.885e+00      -1.376e+01       1.034e+00          -0.094          -0.158          -0.983       1.726e-01          0.3681
 179       8.664e+00      -1.376e+01       1.064e+00          -0.178          -0.203          -0.963       1.333e-01          0.5555
 180       8.510e+00      -1.376e+01       1.106e+00          -0.370          -0.308          -0.877       9.068e-02          0.6811
 181       8.430e+00      -1.375e+01       1.167e+00          -0.771          -0.505          -0.389       6.609e-02         -0.4434
 182       8.430e+00      -1.375e+01       1.240e+00          -0.774          -0.433           0.463       6.261e-02         -3.4594
 183       8.510e+00      -1.375e+01       1.301e+00          -0.375          -0.156           0.914       8.931e-02         -4.0174
 184       8.664e+00      -1.374e+01       1.342e+00          -0.173          -0.031           0.984       1.318e-01         -2.2093
 185       8.885e+00      -1.374e+01       1.370e+00          -0.091           0.017           0.996       1.711e-01         -1.4175
 186       9.159e+00      -1.374e+01       1.388e+00          -0.040           0.045           0.998       2.016e-01         -1.0419
 187       9.470e+00      -1.374e+01       1.394e+00          -0.002           0.064           0.998       2.209e-01         -0.8218
 188       9.800e+00      -1.374e+01       1.388e+00           0.039           0.083           0.996       2.277e-01         -0.6710
 189       1.013e+01      -1.374e+01       1.366e+00           0.090           0.104           0.990       2.221e-01         -0.5139
 190       1.044e+01      -1.374e+01       1.332e+00           0.131           0.120           0.984       2.037e-01         -0.3399
 191       1.072e+01      -1.375e+01       1.292e+00           0.159           0.129           0.979       1.731e-01         -0.1917
 192       1.094e+01      -1.375e+01       1.255e+00           0.180           0.136           0.974       1.320e-01         -0.0758
 193       1.109e+01      -1.375e+01       1.225e+00           0.201           0.142           0.969       8.282e-02          0.0664
 194       1.117e+01      -1.375e+01       1.208e+00           0.215           0.145           0.966       2.825e-02          0.1652
Strip 8
 195       1.096e+01      -1.303e+01       1.145e+00          -0.175          -0.135          -0.975       3.450e-02          0.3401
 196       1.088e+01      -1.303e+01       1.155e+00          -0.095          -0.113          -0.989       1.002e-01          0.3722
 197       1.071e+01      -1.303e+01       1.157e+00           0.039          -0.073          -0.997       1.596e-01          0.3922
 198       1.047e+01      -1.303e+01       1.130e+00           0.162          -0.032          -0.986       2.130e-01          0.3293
 199       1.017e+01      -1.303e+01       1.073e+00           0.214          -0.013          -0.977       2.547e-01          0.2165
 200       9.835e+00      -1.303e+01       1.005e+00           0.184          -0.025          -0.983       2.777e-01          0.0967
 201       9.476e+00      -1.304e+01       9.546e-01           0.094          -0.065          -0.993       2.824e-01          0.0573
 202       9.118e+00      -1.304e+01       9.345e-01           0.017          -0.101          -0.995       2.735e-01          0.1207
 203       8.780e+00      -1.304e+01       9.376e-01          -0.038          -0.128          -0.991       2.500e-01          0.2308
 204       8.483e+00      -1.304e+01       9.566e-01          -0.094          -0.158          -0.983       2.127e-01          0.3726
 205       8.243e+00      -1.303e+01       9.883e-01          -0.178          -0.203          -0.963       1.644e-01          0.5577
 206       8.076e+00      -1.303e+01       1.034e+00          -0.369          -0.308          -0.877       1.119e-01          0.6860
 207       7.989e+00      -1.303e+01       1.101e+00          -0.769          -0.505          -0.391       8.153e-02         -0.4148
 208       7.989e+00      -1.303e+01       1.180e+00          -0.775          -0.434           0.460       7.703e-02         -3.4286
 209       8.076e+00      -1.302e+01       1.246e+00          -0.375          -0.156           0.914       1.099e-01         -4.0054
 210       8.243e+00      -1.302e+01       1.291e+00          -0.173          -0.031           0.984       1.622e-01         -2.2070
 211       8.483e+00      -1.302e+01       1.321e+00          -0.091           0.017           0.996       2.107e-01         -1.4208
 212       8.780e+00      -1.302e+01       1.340e+00          -0.040           0.045           0.998       2.483e-01         -1.0488
 213       9.118e+00      -1.302e+01       1.347e+00          -0.002           0.064           0.998       2.721e-01         -0.8311
 214       9.476e+00      -1.302e+01       1.340e+00           0.039           0.083           0.996       2.806e-01         -0.6813
 215       9.835e+00      -1.302e+01       1.317e+00           0.090           0.104           0.990       2.737e-01         -0.5235
 216       1.017e+01      -1.302e+01       1.280e+00           0.131           0.120           0.984       2.511e-01         -0.3477
 217       1.047e+01      -1.302e+01       1.237e+00           0.159           0.129           0.979       2.134e-01         -0.1968
 218       1.071e+01      -1.302e+01       1.196e+00           0.180           0.136           0.974       1.627e-01         -0.0784
 219       1.088e+01      -1.303e+01       1.164e+00           0.201           0.142           0.969       1.021e-01          0.0661
 220       1.096e+01      -1.303e+01       1.145e+00           0.215           0.145           0.966       3.482e-02          0.1661
Strip 9
 221       1.073e+01      -1.221e+01       1.074e+00          -0.175          -0.135          -0.975       4.177e-02          0.3440
 222       1.064e+01      -1.221e+01       1.085e+00          -0.095          -0.113          -0.989       1.213e-01          0.3768
 223       1.045e+01      -1.221e+01       1.087e+00           0.039          -0.073          -0.997       1.932e-01          0.3977
 224       1.019e+01      -1.222e+01       1.058e+00           0.162          -0.032          -0.986       2.577e-01          0.3352
 225       9.870e+00      -1.222e+01       9.956e-01           0.214          -0.013          -0.977       3.082e-01          0.2221
 226       9.502e+00      -1.222e+01       9.215e-01           0.184          -0.025          -0.983       3.359e-01          0.1013
 227       9.112e+00      -1.222e+01       8.670e-01           0.094          -0.065          -0.993       3.418e-01          0.0607
 228       8.722e+00      -1.222e+01       8.452e-01           0.017          -0.101          -0.995       3.310e-01          0.1225
 229       8.355e+00      -1.222e+01       8.486e-01          -0.038          -0.128          -0.991       3.026e-01          0.2306
 230       8.031e+00      -1.222e+01       8.692e-01          -0.094          -0.158          -0.983       2.575e-01          0.3702
 231       7.771e+00      -1.222e+01       9.037e-01          -0.177          -0.203          -0.963       1.991e-01          0.5540
 232       7.588e+00      -1.222e+01       9.533e-01          -0.368          -0.308          -0.877       1.356e-01          0.6913
 233       7.494e+00      -1.222e+01       1.027e+00          -0.768          -0.504          -0.394       9.881e-02         -0.3632
 234       7.494e+00      -1.221e+01       1.113e+00          -0.776          -0.435           0.458       9.312e-02         -3.3487
 235       7.588e+00      -1.221e+01       1.184e+00          -0.376          -0.156           0.913       1.328e-01         -3.9511
 236       7.771e+00      -1.221e+01       1.233e+00          -0.173          -0.031           0.984       1.962e-01         -2.1829
 237       8.031e+00      -1.221e+01       1.266e+00          -0.091           0.017           0.996       2.550e-01         -1.4094
 238       8.355e+00      -1.221e+01       1.287e+00          -0.040           0.045           0.998       3.005e-01         -1.0438
 239       8.722e+00      -1.221e+01       1.294e+00          -0.002           0.064           0.998       3.293e-01         -0.8299
 240       9.112e+00      -1.221e+01       1.287e+00           0.039           0.083           0.996       3.397e-01         -0.6824
 241       9.502e+00      -1.221e+01       1.262e+00           0.090           0.104           0.990       3.313e-01         -0.5258
 242       9.870e+00      -1.221e+01       1.221e+00           0.131           0.120           0.984       3.040e-01         -0.3501
 243       1.019e+01      -1.221e+01       1.174e+00           0.159           0.129           0.979       2.583e-01         -0.1985
 244       1.045e+01      -1.221e+01       1.130e+00           0.179           0.136           0.974       1.970e-01         -0.0793
 245       1.064e+01      -1.221e+01       1.095e+00           0.201           0.142           0.969       1.236e-01          0.0661
 246       1.073e+01      -1.221e+01       1.075e+00           0.215           0.145           0.966       4.216e-02          0.1665
Strip 10
 247       1.047e+01      -1.132e+01       9.960e-01          -0.175          -0.135          -0.975       4.980e-02          0.3466
 248       1.037e+01      -1.132e+01       1.008e+00          -0.095          -0.113          -0.989       1.446e-01          0.3797
 249       1.017e+01      -1.132e+01       1.010e+00           0.039          -0.073          -0.997       2.302e-01          0.4010
 250       9.888e+00      -1.132e+01       9.790e-01           0.162          -0.032          -0.986       3.070e-01          0.3385
 251       9.536e+00      -1.132e+01       9.107e-01           0.214          -0.013          -0.977       3.671e-01          0.2244
 252       9.136e+00      -1.132e+01       8.298e-01           0.184          -0.025          -0.983       4.002e-01          0.1019
 253       8.711e+00      -1.133e+01       7.705e-01           0.094          -0.065          -0.993       4.072e-01          0.0593
 254       8.286e+00      -1.133e+01       7.467e-01           0.017          -0.101          -0.995       3.945e-01          0.1194
 255       7.886e+00      -1.133e+01       7.504e-01          -0.038          -0.128          -0.991       3.607e-01          0.2256
 256       7.534e+00      -1.133e+01       7.729e-01          -0.093          -0.158          -0.983       3.070e-01          0.3631
 257       7.250e+00      -1.133e+01       8.105e-01          -0.177          -0.203          -0.963       2.374e-01          0.5462
 258       7.051e+00      -1.132e+01       8.646e-01          -0.368          -0.308          -0.877       1.618e-01          0.6963
 259       6.948e+00      -1.132e+01       9.444e-01          -0.767          -0.504          -0.396       1.179e-01         -0.2961
 260       6.948e+00      -1.132e+01       1.038e+00          -0.777          -0.435           0.455       1.108e-01         -3.2329
 261       7.051e+00      -1.131e+01       1.116e+00          -0.376          -0.157           0.913       1.581e-01         -3.8654
 262       7.250e+00      -1.131e+01       1.169e+00          -0.174          -0.031           0.984       2.337e-01         -2.1428
 263       7.534e+00      -1.131e+01       1.206e+00          -0.091           0.017           0.996       3.038e-01         -1.3876
 264       7.886e+00      -1.131e+01       1.228e+00          -0.040           0.045           0.998       3.581e-01         -1.0306
 265       8.286e+00      -1.131e+01       1.236e+00          -0.002           0.064           0.998       3.925e-01         -0.8219
 266       8.711e+00      -1.131e+01       1.228e+00           0.039           0.083           0.996       4.049e-01         -0.6776
 267       9.136e+00      -1.131e+01       1.201e+00           0.090           0.104           0.991       3.950e-01         -0.5232
 268       9.536e+00      -1.131e+01       1.157e+00           0.131           0.120           0.984       3.624e-01         -0.3488
 269       9.888e+00      -1.131e+01       1.105e+00           0.158           0.129           0.979       3.080e-01         -0.1978
 270       1.017e+01      -1.132e+01       1.057e+00           0.179           0.136           0.974       2.348e-01         -0.0787
 271       1.037e+01      -1.132e+01       1.019e+00           0.201           0.142           0.969       1.474e-01          0.0665
 272       1.047e+01      -1.132e+01       9.971e-01           0.215           0.145           0.966       5.027e-02          0.1668
Strip 11
 273       1.019e+01      -1.035e+01       9.113e-01          -0.175          -0.135          -0.975       5.855e-02          0.3482
 274       1.008e+01      -1.034e+01       9.243e-01          -0.095          -0.113          -0.989       1.700e-01          0.3815
 275       9.867e+00      -1.034e+01       9.270e-01           0.039          -0.073          -0.997       2.706e-01          0.4031
 276       9.557e+00      -1.035e+01       8.928e-01           0.162          -0.032          -0.986       3.608e-01          0.3401
 277       9.174e+00      -1.035e+01       8.184e-01           0.214          -0.013          -0.977       4.313e-01          0.2248
 278       8.738e+00      -1.035e+01       7.303e-01           0.184          -0.025          -0.983       4.701e-01          0.0999
 279       8.275e+00      -1.035e+01       6.656e-01           0.094          -0.065          -0.993       4.785e-01          0.0548
 280       7.812e+00      -1.035e+01       6.397e-01           0.017          -0.101          -0.995       4.636e-01          0.1129
 281       7.376e+00      -1.035e+01       6.437e-01          -0.038          -0.128          -0.991       4.240e-01          0.2171
 282       6.993e+00      -1.035e+01       6.682e-01          -0.093          -0.158          -0.983       3.610e-01          0.3526
 283       6.684e+00      -1.035e+01       7.092e-01          -0.177          -0.203          -0.963       2.792e-01          0.5350
 284       6.467e+00      -1.035e+01       7.681e-01          -0.368          -0.307          -0.878       1.904e-01          0.7002
 285       6.355e+00      -1.035e+01       8.551e-01          -0.767          -0.503          -0.399       1.388e-01         -0.2189
 286       6.355e+00      -1.034e+01       9.576e-01          -0.777          -0.436           0.453       1.301e-01         -3.0907
 287       6.467e+00      -1.034e+01       1.042e+00          -0.377          -0.157           0.913       1.856e-01         -3.7559
 288       6.684e+00      -1.034e+01       1.100e+00          -0.174          -0.031           0.984       2.745e-01         -2.0910
 289       6.993e+00      -1.034e+01       1.140e+00          -0.091           0.017           0.996       3.570e-01         -1.3582
 290       7.376e+00      -1.034e+01       1.164e+00          -0.040           0.045           0.998       4.209e-01         -1.0117
 291       7.812e+00      -1.034e+01       1.173e+00          -0.002           0.064           0.998       4.613e-01         -0.8091
 292       8.275e+00      -1.034e+01       1.164e+00           0.039           0.083           0.996       4.759e-01         -0.6689
 293       8.738e+00      -1.034e+01       1.134e+00           0.090           0.104           0.991       4.643e-01         -0.5174
 294       9.174e+00      -1.034e+01       1.086e+00           0.131           0.120           0.984       4.261e-01         -0.3451
 295       9.557e+00      -1.034e+01       1.030e+00           0.158           0.129           0.979       3.621e-01         -0.1955
 296       9.867e+00      -1.034e+01       9.775e-01           0.179           0.136           0.974       2.761e-01         -0.0774
 297       1.008e+01      -1.034e+01       9.359e-01           0.201           0.142           0.969       1.732e-01          0.0672
 298       1.019e+01      -1.035e+01       9.125e-01           0.214           0.145           0.966       5.911e-02          0.1672
Strip 12
 299       9.896e+00      -9.301e+00       8.205e-01          -0.175          -0.135          -0.975       6.795e-02          0.3494
 300       9.774e+00      -9.301e+00       8.347e-01          -0.095          -0.113          -0.989       1.972e-01          0.3827
 301       9.539e+00      -9.301e+00       8.376e-01           0.039          -0.073          -0.997       3.139e-01          0.4043
 302       9.203e+00      -9.302e+00       8.004e-01           0.163          -0.032          -0.986       4.184e-01          0.3407
 303       8.785e+00      -9.304e+00       7.194e-01           0.214          -0.013          -0.977       5.002e-01          0.2237
 304       8.311e+00      -9.306e+00       6.235e-01           0.184          -0.025          -0.983       5.452e-01          0.0961
 305       7.808e+00      -9.308e+00       5.531e-01           0.094          -0.065          -0.993       5.551e-01          0.0481
 306       7.304e+00      -9.308e+00       5.249e-01           0.017          -0.101          -0.995       5.378e-01          0.1039
 307       6.830e+00      -9.308e+00       5.293e-01          -0.038          -0.128          -0.991       4.920e-01          0.2060
 308       6.413e+00      -9.308e+00       5.560e-01          -0.093          -0.157          -0.983       4.189e-01          0.3394
 309       6.076e+00      -9.307e+00       6.006e-01          -0.177          -0.203          -0.963       3.241e-01          0.5210
 310       5.841e+00      -9.305e+00       6.647e-01          -0.367          -0.307          -0.878       2.211e-01          0.7024
 311       5.719e+00      -9.303e+00       7.594e-01          -0.766          -0.503          -0.401       1.611e-01         -0.1353
 312       5.719e+00      -9.300e+00       8.709e-01          -0.778          -0.437           0.451       1.508e-01         -2.9286
 313       5.841e+00      -9.298e+00       9.628e-01          -0.377          -0.157           0.913       2.151e-01         -3.6279
 314       6.076e+00      -9.296e+00       1.026e+00          -0.174          -0.031           0.984       3.183e-01         -2.0299
 315       6.413e+00      -9.295e+00       1.069e+00          -0.091           0.017           0.996       4.141e-01         -1.3231
 316       6.830e+00      -9.295e+00       1.096e+00          -0.040           0.045           0.998       4.882e-01         -0.9888
 317       7.304e+00      -9.294e+00       1.105e+00          -0.002           0.064           0.998       5.352e-01         -0.7930
 318       7.808e+00      -9.295e+00       1.096e+00           0.039           0.083           0.996       5.522e-01         -0.6573
 319       8.311e+00      -9.295e+00       1.063e+00           0.090           0.104           0.991       5.388e-01         -0.5094
 320       8.785e+00      -9.297e+00       1.011e+00           0.131           0.120           0.984       4.945e-01         -0.3398
 321       9.203e+00      -9.298e+00       9.500e-01           0.158           0.129           0.979       4.202e-01         -0.1921
 322       9.539e+00      -9.299e+00       8.926e-01           0.179           0.136           0.974       3.204e-01         -0.0754
 323       9.774e+00      -9.301e+00       8.473e-01           0.200           0.142           0.969       2.011e-01          0.0680
 324       9.896e+00      -9.301e+00       8.218e-01           0.214           0.145           0.966       6.859e-02          0.1673
Strip 13
 325       9.579e+00      -8.194e+00       7.242e-01          -0.175          -0.135          -0.975       7.788e-02          0.3503
 326       9.447e+00      -8.193e+00       7.396e-01          -0.095          -0.113          -0.989       2.260e-01          0.3836
 327       9.191e+00      -8.193e+00       7.427e-01           0.039          -0.073          -0.997       3.597e-01          0.4050
 328       8.826e+00      -8.194e+00       7.023e-01           0.163          -0.032          -0.986       4.793e-01          0.3406
 329       8.373e+00      -8.196e+00       6.144e-01           0.214          -0.013          -0.977       5.729e-01          0.2217
 330       7.858e+00      -8.198e+00       5.102e-01           0.184          -0.025          -0.983       6.246e-01          0.0909
 331       7.312e+00      -8.199e+00       4.338e-01           0.094          -0.065          -0.993       6.359e-01          0.0396
 332       6.765e+00      -8.200e+00       4.032e-01           0.017          -0.101          -0.995       6.163e-01          0.0930
 333       6.250e+00      -8.200e+00       4.079e-01          -0.038          -0.128          -0.991       5.638e-01          0.1928
 334       5.797e+00      -8.199e+00       4.369e-01          -0.093          -0.157          -0.983       4.801e-01          0.3237
 335       5.432e+00      -8.198e+00       4.854e-01          -0.177          -0.203          -0.963       3.715e-01          0.5042
 336       5.176e+00      -8.197e+00       5.550e-01          -0.367          -0.307          -0.878       2.536e-01          0.7022
 337       5.045e+00      -8.195e+00       6.578e-01          -0.765          -0.503          -0.402       1.848e-01         -0.0479
 338       5.045e+00      -8.193e+00       7.789e-01          -0.779          -0.437           0.450       1.727e-01         -2.7503
 339       5.176e+00      -8.191e+00       8.788e-01          -0.378          -0.157           0.912       2.463e-01         -3.4838
 340       5.432e+00      -8.189e+00       9.474e-01          -0.174          -0.031           0.984       3.646e-01         -1.9611
 341       5.797e+00      -8.188e+00       9.943e-01          -0.091           0.017           0.996       4.744e-01         -1.2834
 342       6.250e+00      -8.188e+00       1.023e+00          -0.040           0.045           0.998       5.594e-01         -0.9625
 343       6.765e+00      -8.188e+00       1.033e+00          -0.002           0.064           0.998       6.133e-01         -0.7744
 344       7.312e+00      -8.188e+00       1.023e+00           0.039           0.083           0.996       6.328e-01         -0.6438
 345       7.858e+00      -8.188e+00       9.880e-01           0.090           0.104           0.991       6.175e-01         -0.4999
 346       8.373e+00      -8.190e+00       9.310e-01           0.131           0.120           0.984       5.668e-01         -0.3336
 347       8.826e+00      -8.191e+00       8.649e-01           0.158           0.129           0.979       4.817e-01         -0.1882
 348       9.191e+00      -8.192e+00       8.025e-01           0.179           0.136           0.974       3.673e-01         -0.0731
 349       9.447e+00      -8.193e+00       7.533e-01           0.200           0.142           0.969       2.304e-01          0.0689
 350       9.579e+00      -8.194e+00       7.256e-01           0.214           0.145           0.966       7.862e-02          0.1673
Strip 14
 351       9.245e+00      -7.030e+00       6.230e-01          -0.175          -0.135          -0.975       8.821e-02          0.3509
 352       9.103e+00      -7.030e+00       6.397e-01          -0.095          -0.113          -0.989       2.560e-01          0.3842
 353       8.826e+00      -7.030e+00       6.431e-01           0.039          -0.073          -0.997       4.073e-01          0.4054
 354       8.430e+00      -7.031e+00       5.993e-01           0.163          -0.032          -0.986       5.427e-01          0.3401
 355       7.940e+00      -7.032e+00       5.040e-01           0.214          -0.013          -0.977       6.486e-01          0.2190
 356       7.382e+00      -7.034e+00       3.912e-01           0.184          -0.025          -0.983       7.071e-01          0.0846
 357       6.791e+00      -7.035e+00       3.085e-01           0.094          -0.065          -0.993       7.200e-01          0.0298
 358       6.199e+00      -7.036e+00       2.753e-01           0.017          -0.101          -0.995       6.979e-01          0.0805
 359       5.641e+00      -7.035e+00       2.804e-01          -0.038          -0.128          -0.991       6.385e-01          0.1777
 360       5.151e+00      -7.035e+00       3.118e-01          -0.093          -0.157          -0.983       5.438e-01          0.3058
 361       4.756e+00      -7.034e+00       3.643e-01          -0.177          -0.203          -0.963       4.209e-01          0.4846
 362       4.478e+00      -7.033e+00       4.397e-01          -0.367          -0.307          -0.878       2.874e-01          0.6989
 363       4.336e+00      -7.031e+00       5.511e-01          -0.764          -0.503          -0.404       2.095e-01          0.0421
 364       4.336e+00      -7.029e+00       6.822e-01          -0.780          -0.438           0.448       1.954e-01         -2.5572
 365       4.478e+00      -7.028e+00       7.904e-01          -0.378          -0.158           0.912       2.786e-01         -3.3248
 366       4.756e+00      -7.026e+00       8.648e-01          -0.174          -0.031           0.984       4.127e-01         -1.8851
 367       5.151e+00      -7.026e+00       9.156e-01          -0.091           0.017           0.996       5.371e-01         -1.2396
 368       5.641e+00      -7.025e+00       9.468e-01          -0.040           0.045           0.998       6.334e-01         -0.9335
 369       6.199e+00      -7.025e+00       9.579e-01          -0.002           0.064           0.998       6.945e-01         -0.7540
 370       6.791e+00      -7.025e+00       9.467e-01           0.039           0.083           0.996       7.166e-01         -0.6291
 371       7.382e+00      -7.026e+00       9.087e-01           0.090           0.104           0.991       6.994e-01         -0.4896
 372       7.940e+00      -7.027e+00       8.470e-01           0.131           0.120           0.984       6.419e-01         -0.3269
 373       8.430e+00      -7.028e+00       7.754e-01           0.158           0.129           0.979       5.456e-01         -0.1841
 374       8.826e+00      -7.029e+00       7.078e-01           0.179           0.136           0.974       4.160e-01         -0.0708
 375       9.103e+00      -7.030e+00       6.545e-01           0.200           0.142           0.969       2.610e-01          0.0696
 376       9.245e+00      -7.030e+00       6.246e-01           0.214           0.145           0.966       8.906e-02          0.1673
Strip 15
 377       8.898e+00      -5.819e+00       5.177e-01          -0.175          -0.135          -0.975       9.877e-02          0.3514
 378       8.744e+00      -5.818e+00       5.356e-01          -0.095          -0.113          -0.989       2.866e-01          0.3845
 379       8.445e+00      -5.818e+00       5.393e-01           0.039          -0.073          -0.997       4.559e-01          0.4054
 380       8.019e+00      -5.819e+00       4.921e-01           0.163          -0.032          -0.986       6.075e-01          0.3392
 381       7.489e+00      -5.820e+00       3.892e-01           0.214          -0.013          -0.977       7.259e-01          0.2157
 382       6.887e+00      -5.822e+00       2.673e-01           0.184          -0.025          -0.983       7.914e-01          0.0774
 383       6.248e+00      -5.823e+00       1.779e-01           0.094          -0.065          -0.993       8.060e-01          0.0187
 384       5.609e+00      -5.823e+00       1.421e-01           0.017          -0.101          -0.995       7.813e-01          0.0665
 385       5.007e+00      -5.823e+00       1.477e-01          -0.038          -0.128          -0.991       7.149e-01          0.1610
 386       4.478e+00      -5.823e+00       1.815e-01          -0.093          -0.157          -0.983       6.090e-01          0.2858
 387       4.051e+00      -5.822e+00       2.382e-01          -0.177          -0.203          -0.963       4.714e-01          0.4620
 388       3.752e+00      -5.821e+00       3.197e-01          -0.366          -0.307          -0.879       3.220e-01          0.6918
 389       3.598e+00      -5.820e+00       4.400e-01          -0.764          -0.502          -0.405       2.347e-01          0.1344
 390       3.598e+00      -5.818e+00       5.816e-01          -0.780          -0.438           0.447       2.186e-01         -2.3481
 391       3.752e+00      -5.816e+00       6.985e-01          -0.378          -0.158           0.912       3.117e-01         -3.1491
 392       4.051e+00      -5.815e+00       7.788e-01          -0.174          -0.031           0.984       4.619e-01         -1.8011
 393       4.478e+00      -5.815e+00       8.336e-01          -0.091           0.017           0.996       6.012e-01         -1.1913
 394       5.007e+00      -5.814e+00       8.673e-01          -0.040           0.045           0.998       7.091e-01         -0.9020
 395       5.609e+00      -5.814e+00       8.793e-01          -0.002           0.064           0.998       7.775e-01         -0.7322
 396       6.248e+00      -5.814e+00       8.673e-01           0.039           0.083           0.996       8.024e-01         -0.6137
 397       6.887e+00      -5.815e+00       8.262e-01           0.090           0.104           0.991       7.831e-01         -0.4792
 398       7.489e+00      -5.816e+00       7.596e-01           0.131           0.120           0.984       7.188e-01         -0.3203
 399       8.019e+00      -5.817e+00       6.822e-01           0.158           0.129           0.979       6.109e-01         -0.1801
 400       8.445e+00      -5.818e+00       6.092e-01           0.179           0.136           0.974       4.658e-01         -0.0687
 401       8.744e+00      -5.818e+00       5.517e-01           0.200           0.142           0.969       2.923e-01          0.0699
 402       8.898e+00      -5.819e+00       5.193e-01           0.214           0.145           0.966       9.972e-02          0.1665
Strip 16
 403       8.540e+00      -4.567e+00       4.089e-01          -0.175          -0.135          -0.975       1.094e-01          0.3516
 404       8.374e+00      -4.567e+00       4.282e-01          -0.095          -0.113          -0.989       3.174e-01          0.3846
 405       8.052e+00      -4.567e+00       4.322e-01           0.039          -0.073          -0.997       5.048e-01          0.4052
 406       7.593e+00      -4.568e+00       3.813e-01           0.163          -0.032          -0.986       6.725e-01          0.3379
 407       7.023e+00      -4.569e+00       2.705e-01           0.214          -0.013          -0.977       8.035e-01          0.2118
 408       6.375e+00      -4.570e+00       1.394e-01           0.184          -0.025          -0.983       8.760e-01          0.0692
 409       5.688e+00      -4.571e+00       4.312e-02           0.094          -0.065          -0.993       8.923e-01          0.0064
 410       5.000e+00      -4.571e+00       4.559e-03           0.017          -0.101          -0.995       8.650e-01          0.0513
 411       4.352e+00      -4.571e+00       1.053e-02          -0.038          -0.128          -0.991       7.916e-01          0.1428
 412       3.782e+00      -4.570e+00       4.697e-02          -0.093          -0.157          -0.983       6.743e-01          0.2638
 413       3.323e+00      -4.570e+00       1.080e-01          -0.177          -0.203          -0.963       5.221e-01          0.4361
 414       3.001e+00      -4.569e+00       1.957e-01          -0.366          -0.306          -0.879       3.567e-01          0.6800
 415       2.835e+00      -4.568e+00       3.252e-01          -0.763          -0.502          -0.406       2.600e-01          0.2299
 416       2.835e+00      -4.567e+00       4.777e-01          -0.781          -0.439           0.445       2.419e-01         -2.1179
 417       3.001e+00      -4.566e+00       6.035e-01          -0.379          -0.158           0.912       3.449e-01         -2.9506
 418       3.323e+00      -4.565e+00       6.900e-01          -0.174          -0.031           0.984       5.113e-01         -1.7060
 419       3.782e+00      -4.564e+00       7.490e-01          -0.091           0.017           0.996       6.655e-01         -1.1374
 420       4.352e+00      -4.564e+00       7.852e-01          -0.040           0.045           0.998       7.851e-01         -0.8677
 421       5.000e+00      -4.564e+00       7.981e-01          -0.002           0.064           0.998       8.609e-01         -0.7096
 422       5.688e+00      -4.564e+00       7.852e-01           0.039           0.083           0.996       8.884e-01         -0.5988
 423       6.375e+00      -4.564e+00       7.410e-01           0.090           0.104           0.991       8.672e-01         -0.4698
 424       7.023e+00      -4.565e+00       6.693e-01           0.131           0.120           0.984       7.960e-01         -0.3149
 425       7.593e+00      -4.566e+00       5.860e-01           0.158           0.129           0.979       6.765e-01         -0.1773
 426       8.052e+00      -4.566e+00       5.074e-01           0.179           0.136           0.974       5.159e-01         -0.0675
 427       8.374e+00      -4.567e+00       4.455e-01           0.200           0.142           0.969       3.237e-01          0.0696
 428       8.540e+00      -4.567e+00       4.107e-01           0.214           0.145           0.966       1.104e-01          0.1652
Strip 17
 429       8.173e+00      -3.285e+00       2.973e-01          -0.174          -0.135          -0.975       1.198e-01          0.3514
 430       7.995e+00      -3.285e+00       3.181e-01          -0.095          -0.113          -0.989       3.476e-01          0.3843
 431       7.650e+00      -3.285e+00       3.224e-01           0.039          -0.073          -0.997       5.529e-01          0.4046
 432       7.157e+00      -3.285e+00       2.678e-01           0.163          -0.032          -0.986       7.364e-01          0.3360
 433       6.546e+00      -3.286e+00       1.489e-01           0.214          -0.013          -0.977       8.799e-01          0.2069
 434       5.851e+00      -3.287e+00       8.212e-03           0.184          -0.025          -0.983       9.593e-01          0.0599
 435       5.113e+00      -3.287e+00      -9.505e-02           0.094          -0.065          -0.993       9.771e-01         -0.0068
 436       4.376e+00      -3.287e+00      -1.364e-01           0.017          -0.101          -0.995       9.474e-01          0.0356
 437       3.681e+00      -3.287e+00      -1.300e-01          -0.038          -0.128          -0.991       8.671e-01          0.1242
 438       3.070e+00      -3.287e+00      -9.092e-02          -0.093          -0.157          -0.983       7.387e-01          0.2406
 439       2.577e+00      -3.287e+00      -2.540e-02          -0.177          -0.203          -0.963       5.720e-01          0.4072
 440       2.232e+00      -3.286e+00       6.867e-02          -0.366          -0.306          -0.879       3.909e-01          0.6626
 441       2.054e+00      -3.285e+00       2.076e-01          -0.763          -0.502          -0.408       2.850e-01          0.3320
 442       2.054e+00      -3.284e+00       3.712e-01          -0.781          -0.439           0.444       2.648e-01         -1.8540
 443       2.232e+00      -3.284e+00       5.061e-01          -0.379          -0.158           0.912       3.776e-01         -2.7150
 444       2.577e+00      -3.283e+00       5.989e-01          -0.174          -0.031           0.984       5.598e-01         -1.5927
 445       3.070e+00      -3.283e+00       6.622e-01          -0.091           0.017           0.996       7.288e-01         -1.0746
 446       3.681e+00      -3.282e+00       7.011e-01          -0.040           0.045           0.998       8.598e-01         -0.8300
 447       4.376e+00      -3.282e+00       7.150e-01          -0.002           0.064           0.998       9.429e-01         -0.6871
 448       5.113e+00      -3.282e+00       7.011e-01           0.039           0.083           0.996       9.731e-01         -0.5862
 449       5.851e+00      -3.283e+00       6.537e-01           0.090           0.104           0.991       9.499e-01         -0.4639
 450       6.546e+00      -3.283e+00       5.767e-01           0.131           0.120           0.984       8.720e-01         -0.3130
 451       7.157e+00      -3.284e+00       4.874e-01           0.158           0.129           0.979       7.411e-01         -0.1772
 452       7.650e+00      -3.284e+00       4.031e-01           0.179           0.136           0.974       5.651e-01         -0.0683
 453       7.995e+00      -3.285e+00       3.366e-01           0.200           0.142           0.969       3.546e-01          0.0679
 454       8.173e+00      -3.285e+00       2.993e-01           0.214           0.145           0.966       1.210e-01          0.1628
Strip 18
 455       7.799e+00      -1.980e+00       1.838e-01          -0.174          -0.135          -0.975       1.299e-01          0.3507
 456       7.609e+00      -1.980e+00       2.060e-01          -0.095          -0.113          -0.989       3.768e-01          0.3836
 457       7.240e+00      -1.980e+00       2.106e-01           0.039          -0.073          -0.997       5.991e-01          0.4033
 458       6.713e+00      -1.980e+00       1.522e-01           0.163          -0.032          -0.986       7.979e-01          0.3325
 459       6.060e+00      -1.980e+00       2.517e-02           0.214          -0.013          -0.977       9.534e-01          0.1994
 460       5.317e+00      -1.981e+00      -1.252e-01           0.184          -0.025          -0.983       1.039e+00          0.0481
 461       4.529e+00      -1.981e+00      -2.356e-01           0.094          -0.065          -0.993       1.059e+00         -0.0203
 462       3.741e+00      -1.981e+00      -2.799e-01           0.017          -0.101          -0.995       1.027e+00          0.0224
 463       2.998e+00      -1.981e+00      -2.730e-01          -0.038          -0.128          -0.991       9.397e-01          0.1096
 464       2.345e+00      -1.981e+00      -2.312e-01          -0.093          -0.157          -0.983       8.006e-01          0.2206
 465       1.818e+00      -1.981e+00      -1.612e-01          -0.177          -0.203          -0.963       6.200e-01          0.3779
 466       1.449e+00      -1.981e+00      -6.061e-02          -0.366          -0.306          -0.879       4.239e-01          0.6405
 467       1.259e+00      -1.980e+00       8.792e-02          -0.762          -0.502          -0.409       3.090e-01          0.4530
 468       1.259e+00      -1.980e+00       2.628e-01          -0.781          -0.439           0.443       2.868e-01         -1.5232
 469       1.449e+00      -1.979e+00       4.071e-01          -0.379          -0.158           0.912       4.089e-01         -2.4059
 470       1.818e+00      -1.979e+00       5.063e-01          -0.174          -0.031           0.984       6.065e-01         -1.4431
 471       2.345e+00      -1.979e+00       5.740e-01          -0.091           0.017           0.996       7.897e-01         -0.9949
 472       2.998e+00      -1.979e+00       6.155e-01          -0.040           0.045           0.998       9.317e-01         -0.7868
 473       3.741e+00      -1.978e+00       6.303e-01          -0.002           0.064           0.998       1.022e+00         -0.6667
 474       4.529e+00      -1.979e+00       6.155e-01           0.039           0.083           0.996       1.055e+00         -0.5805
 475       5.317e+00      -1.979e+00       5.648e-01           0.090           0.104           0.991       1.030e+00         -0.4672
 476       6.060e+00      -1.979e+00       4.825e-01           0.131           0.120           0.984       9.451e-01         -0.3200
 477       6.713e+00      -1.979e+00       3.870e-01           0.158           0.129           0.979       8.032e-01         -0.1840
 478       7.240e+00      -1.980e+00       2.969e-01           0.179           0.136           0.974       6.125e-01         -0.0736
 479       7.609e+00      -1.980e+00       2.259e-01           0.200           0.142           0.969       3.843e-01          0.0636
 480       7.799e+00      -1.980e+00       1.859e-01           0.214           0.145           0.966       1.311e-01          0.1590
Strip 19
 481       7.422e+00      -6.615e-01       6.918e-02          -0.174          -0.135          -0.975       1.393e-01          0.3505
 482       7.219e+00      -6.615e-01       9.281e-02          -0.095          -0.113          -0.989       4.041e-01          0.3839
 483       6.826e+00      -6.615e-01       9.769e-02           0.039          -0.073          -0.997       6.425e-01          0.4003
 484       6.265e+00      -6.615e-01       3.553e-02           0.163          -0.032          -0.986       8.556e-01          0.3206
 485       5.569e+00      -6.617e-01      -9.985e-02           0.214          -0.013          -0.977       1.022e+00          0.1787
 486       4.778e+00      -6.618e-01      -2.601e-01           0.184          -0.025          -0.983       1.114e+00          0.0279
 487       3.939e+00      -6.619e-01      -3.777e-01           0.094          -0.065          -0.993       1.135e+00         -0.0291
 488       3.099e+00      -6.620e-01      -4.248e-01           0.017          -0.101          -0.995       1.101e+00          0.0256
 489       2.308e+00      -6.620e-01      -4.175e-01          -0.038          -0.128          -0.991       1.008e+00          0.1171
 490       1.612e+00      -6.619e-01      -3.730e-01          -0.093          -0.157          -0.983       8.587e-01          0.2223
 491       1.051e+00      -6.619e-01      -2.984e-01          -0.177          -0.203          -0.963       6.651e-01          0.3682
 492       6.584e-01      -6.618e-01      -1.912e-01          -0.365          -0.306          -0.879       4.548e-01          0.6126
 493       4.560e-01      -6.616e-01      -3.300e-02          -0.762          -0.502          -0.409       3.315e-01          0.5941
 494       4.560e-01      -6.614e-01       1.533e-01          -0.782          -0.440           0.442       3.075e-01         -1.0048
 495       6.584e-01      -6.612e-01       3.070e-01          -0.379          -0.158           0.912       4.384e-01         -1.8634
 496       1.051e+00      -6.611e-01       4.127e-01          -0.174          -0.032           0.984       6.503e-01         -1.1767
 497       1.612e+00      -6.611e-01       4.848e-01          -0.091           0.017           0.996       8.468e-01         -0.8821
 498       2.308e+00      -6.610e-01       5.291e-01          -0.040           0.045           0.998       9.991e-01         -0.7372
 499       3.099e+00      -6.610e-01       5.448e-01          -0.002           0.064           0.998       1.096e+00         -0.6532
 500       3.939e+00      -6.610e-01       5.290e-01           0.039           0.083           0.996       1.131e+00         -0.5917
 501       4.778e+00      -6.611e-01       4.750e-01           0.090           0.104           0.991       1.104e+00         -0.4957
 502       5.569e+00      -6.612e-01       3.874e-01           0.131           0.120           0.984       1.014e+00         -0.3539
 503       6.265e+00      -6.613e-01       2.856e-01           0.158           0.129           0.979       8.615e-01         -0.2119
 504       6.826e+00      -6.614e-01       1.896e-01           0.179           0.136           0.974       6.569e-01         -0.0922
 505       7.219e+00      -6.614e-01       1.139e-01           0.200           0.142           0.969       4.122e-01          0.0528
 506       7.422e+00      -6.615e-01       7.138e-02           0.214           0.145           0.966       1.406e-01          0.1529
Strip 20
 507       7.422e+00       6.615e-01       6.918e-02          -0.174           0.135          -0.975       1.393e-01          0.3505
 508       7.219e+00       6.615e-01       9.281e-02          -0.095           0.113          -0.989       4.041e-01          0.3839
 509       6.826e+00       6.615e-01       9.769e-02           0.039           0.073          -0.997       6.425e-01          0.4003
 510       6.265e+00       6.615e-01       3.553e-02           0.163           0.032          -0.986       8.556e-01          0.3206
 511       5.569e+00       6.617e-01      -9.985e-02           0.214           0.013          -0.977       1.022e+00          0.1787
 512       4.778e+00       6.618e-01      -2.601e-01           0.184           0.025          -0.983       1.114e+00          0.0279
 513       3.939e+00       6.619e-01      -3.777e-01           0.094           0.065          -0.993       1.135e+00         -0.0291
 514       3.099e+00       6.620e-01      -4.248e-01           0.017           0.101          -0.995       1.101e+00          0.0256
 515       2.308e+00       6.620e-01      -4.175e-01          -0.038           0.128          -0.991       1.008e+00          0.1171
 516       1.612e+00       6.619e-01      -3.730e-01          -0.093           0.157          -0.983       8.587e-01          0.2223
 517       1.051e+00       6.619e-01      -2.984e-01          -0.177           0.203          -0.963       6.651e-01          0.3682
 518       6.584e-01       6.618e-01      -1.912e-01          -0.365           0.306          -0.879       4.548e-01          0.6126
 519       4.560e-01       6.616e-01      -3.300e-02          -0.762           0.502          -0.409       3.315e-01          0.5941
 520       4.560e-01       6.614e-01       1.533e-01          -0.782           0.440           0.442       3.075e-01         -1.0048
 521       6.584e-01       6.612e-01       3.070e-01          -0.379           0.158           0.912       4.384e-01         -1.8634
 522       1.051e+00       6.611e-01       4.127e-01          -0.174           0.032           0.984       6.503e-01         -1.1767
 523       1.612e+00       6.611e-01       4.848e-01          -0.091          -0.017           0.996       8.468e-01         -0.8821
 524       2.308e+00       6.610e-01       5.291e-01          -0.040          -0.045           0.998       9.991e-01         -0.7372
 525       3.099e+00       6.610e-01       5.448e-01          -0.002          -0.064           0.998       1.096e+00         -0.6532
 526       3.939e+00       6.610e-01       5.290e-01           0.039          -0.083           0.996       1.131e+00         -0.5917
 527       4.778e+00       6.611e-01       4.750e-01           0.090          -0.104           0.991       1.104e+00         -0.4957
 528       5.569e+00       6.612e-01       3.874e-01           0.131          -0.120           0.984       1.014e+00         -0.3539
 529       6.265e+00       6.613e-01       2.856e-01           0.158          -0.129           0.979       8.615e-01         -0.2119
 530       6.826e+00       6.614e-01       1.896e-01           0.179          -0.136           0.974       6.569e-01         -0.0922
 531       7.219e+00       6.614e-01       1.139e-01           0.200          -0.142           0.969       4.122e-01          0.0528
 532       7.422e+00       6.615e-01       7.138e-02           0.214          -0.145           0.966       1.406e-01          0.1529
Strip 21
 533       7.799e+00       1.980e+00       1.838e-01          -0.174           0.135          -0.975       1.299e-01          0.3507
 534       7.609e+00       1.980e+00       2.060e-01          -0.095           0.113          -0.989       3.768e-01          0.3836
 535       7.240e+00       1.980e+00       2.106e-01           0.039           0.073          -0.997       5.991e-01          0.4033
 536       6.713e+00       1.980e+00       1.522e-01           0.163           0.032          -0.986       7.979e-01          0.3325
 537       6.060e+00       1.980e+00       2.517e-02           0.214           0.013          -0.977       9.534e-01          0.1994
 538       5.317e+00       1.981e+00      -1.252e-01           0.184           0.025          -0.983       1.039e+00          0.0481
 539       4.529e+00       1.981e+00      -2.356e-01           0.094           0.065          -0.993       1.059e+00         -0.0203
 540       3.741e+00       1.981e+00      -2.799e-01           0.017           0.101          -0.995       1.027e+00          0.0224
 541       2.998e+00       1.981e+00      -2.730e-01          -0.038           0.128          -0.991       9.397e-01          0.1096
 542       2.345e+00       1.981e+00      -2.312e-01          -0.093           0.157          -0.983       8.006e-01          0.2206
 543       1.818e+00       1.981e+00      -1.612e-01          -0.177           0.203          -0.963       6.200e-01          0.3779
 544       1.449e+00       1.981e+00      -6.061e-02          -0.366           0.306          -0.879       4.239e-01          0.6405
 545       1.259e+00       1.980e+00       8.792e-02          -0.762           0.502          -0.409       3.090e-01          0.4530
 546       1.259e+00       1.980e+00       2.628e-01          -0.781           0.439           0.443       2.868e-01         -1.5232
 547       1.449e+00       1.979e+00       4.071e-01          -0.379           0.158           0.912       4.089e-01         -2.4059
 548       1.818e+00       1.979e+00       5.063e-01          -0.174           0.031           0.984       6.065e-01         -1.4431
 549       2.345e+00       1.979e+00       5.740e-01          -0.091          -0.017           0.996       7.897e-01         -0.9949
 550       2.998e+00       1.979e+00       6.155e-01          -0.040          -0.045           0.998       9.317e-01         -0.7868
 551       3.741e+00       1.978e+00       6.303e-01          -0.002          -0.064           0.998       1.022e+00         -0.6667
 552       4.529e+00       1.979e+00       6.155e-01           0.039          -0.083           0.996       1.055e+00         -0.5805
 553       5.317e+00       1.979e+00       5.648e-01           0.090          -0.104           0.991       1.030e+00         -0.4672
 554       6.060e+00       1.979e+00       4.825e-01           0.131          -0.120           0.984       9.451e-01         -0.3200
 555       6.713e+00       1.979e+00       3.870e-01           0.158          -0.129           0.979       8.032e-01         -0.1840
 556       7.240e+00       1.980e+00       2.969e-01           0.179          -0.136           0.974       6.125e-01         -0.0736
 557       7.609e+00       1.980e+00       2.259e-01           0.200          -0.142           0.969       3.843e-01          0.0636
 558       7.799e+00       1.980e+00       1.859e-01           0.214          -0.145           0.966       1.311e-01          0.1590
Strip 22
 559       8.173e+00       3.285e+00       2.973e-01          -0.174           0.135          -0.975       1.198e-01          0.3514
 560       7.995e+00       3.285e+00       3.181e-01          -0.095           0.113          -0.989       3.476e-01          0.3843
 561       7.650e+00       3.285e+00       3.224e-01           0.039           0.073          -0.997       5.529e-01          0.4046
 562       7.157e+00       3.285e+00       2.678e-01           0.163           0.032          -0.986       7.364e-01          0.3360
 563       6.546e+00       3.286e+00       1.489e-01           0.214           0.013          -0.977       8.799e-01          0.2069
 564       5.851e+00       3.287e+00       8.212e-03           0.184           0.025          -0.983       9.593e-01          0.0599
 565       5.113e+00       3.287e+00      -9.505e-02           0.094           0.065          -0.993       9.771e-01         -0.0068
 566       4.376e+00       3.287e+00      -1.364e-01           0.017           0.101          -0.995       9.474e-01          0.0356
 567       3.681e+00       3.287e+00      -1.300e-01          -0.038           0.128          -0.991       8.671e-01          0.1242
[...]
 852       9.776e+00       1.439e+01       1.083e+00           0.017           0.101          -0.995       1.764e-01          0.0911
 853       9.488e+00       1.439e+01       1.086e+00          -0.038           0.128          -0.991       1.611e-01          0.2056
 854       9.235e+00       1.439e+01       1.102e+00          -0.094           0.158          -0.983       1.370e-01          0.3534
 855       9.030e+00       1.439e+01       1.129e+00          -0.178           0.204          -0.963       1.058e-01          0.5449
 856       8.887e+00       1.439e+01       1.168e+00          -0.370           0.309          -0.876       7.193e-02          0.6766
 857       8.814e+00       1.438e+01       1.225e+00          -0.772           0.505          -0.386       5.242e-02         -0.4399
 858       8.814e+00       1.438e+01       1.293e+00          -0.772           0.432           0.466       4.981e-02         -3.4246
 859       8.887e+00       1.438e+01       1.348e+00          -0.374           0.155           0.914       7.104e-02         -3.9730
 860       9.030e+00       1.437e+01       1.387e+00          -0.173           0.031           0.984       1.047e-01         -2.1815
 861       9.235e+00       1.437e+01       1.413e+00          -0.091          -0.017           0.996       1.360e-01         -1.3931
 862       9.488e+00       1.437e+01       1.429e+00          -0.040          -0.045           0.998       1.602e-01         -1.0175
 863       9.776e+00       1.437e+01       1.435e+00          -0.002          -0.064           0.998       1.754e-01         -0.7971
 864       1.008e+01       1.437e+01       1.429e+00           0.039          -0.083           0.996       1.809e-01         -0.6473
 865       1.039e+01       1.437e+01       1.409e+00           0.090          -0.104           0.990       1.764e-01         -0.4935
 866       1.068e+01       1.437e+01       1.378e+00           0.131          -0.120           0.984       1.618e-01         -0.3249
 867       1.093e+01       1.438e+01       1.341e+00           0.159          -0.129           0.979       1.375e-01         -0.1825
 868       1.113e+01       1.438e+01       1.306e+00           0.180          -0.136           0.974       1.048e-01         -0.0720
 869       1.128e+01       1.438e+01       1.278e+00           0.201          -0.142           0.969       6.576e-02          0.0658
 870       1.135e+01       1.438e+01       1.263e+00           0.215          -0.145           0.966       2.243e-02          0.1623
Strip 34
 871       1.150e+01       1.491e+01       1.308e+00          -0.175           0.135          -0.975       1.715e-02          0.3009
 872       1.143e+01       1.491e+01       1.316e+00          -0.095           0.113          -0.989       4.983e-02          0.3264
 873       1.130e+01       1.491e+01       1.318e+00           0.039           0.073          -0.997       7.944e-02          0.3381
 874       1.111e+01       1.491e+01       1.297e+00           0.162           0.032          -0.986       1.061e-01          0.2705
 875       1.087e+01       1.492e+01       1.251e+00           0.213           0.013          -0.977       1.270e-01          0.1545
 876       1.061e+01       1.492e+01       1.197e+00           0.183           0.026          -0.983       1.384e-01          0.0313
 877       1.032e+01       1.492e+01       1.158e+00           0.093           0.065          -0.993       1.407e-01         -0.0109
 878       1.003e+01       1.492e+01       1.142e+00           0.017           0.101          -0.995       1.361e-01          0.0536
 879       9.766e+00       1.492e+01       1.144e+00          -0.038           0.128          -0.991       1.243e-01          0.1698
 880       9.530e+00       1.492e+01       1.159e+00          -0.094           0.158          -0.983       1.057e-01          0.3220
 881       9.340e+00       1.492e+01       1.184e+00          -0.178           0.204          -0.963       8.161e-02          0.5204
 882       9.206e+00       1.492e+01       1.221e+00          -0.371           0.309          -0.876       5.543e-02          0.6705
 883       9.137e+00       1.491e+01       1.274e+00          -0.773           0.506          -0.383       4.040e-02         -0.3953
 884       9.137e+00       1.491e+01       1.337e+00          -0.771           0.431           0.468       3.849e-02         -3.3049
 885       9.206e+00       1.491e+01       1.389e+00          -0.374           0.155           0.915       5.490e-02         -3.8545
 886       9.340e+00       1.490e+01       1.424e+00          -0.173           0.031           0.984       8.088e-02         -2.1121
 887       9.530e+00       1.490e+01       1.449e+00          -0.091          -0.017           0.996       1.050e-01         -1.3389
 888       9.766e+00       1.490e+01       1.464e+00          -0.040          -0.045           0.998       1.236e-01         -0.9676
 889       1.003e+01       1.490e+01       1.469e+00          -0.002          -0.064           0.998       1.354e-01         -0.7503
 890       1.032e+01       1.490e+01       1.464e+00           0.039          -0.083           0.996       1.396e-01         -0.6059
 891       1.061e+01       1.490e+01       1.445e+00           0.090          -0.104           0.990       1.361e-01         -0.4610
 892       1.087e+01       1.490e+01       1.416e+00           0.131          -0.120           0.984       1.248e-01         -0.3032
 893       1.111e+01       1.491e+01       1.382e+00           0.159          -0.129           0.979       1.060e-01         -0.1721
 894       1.130e+01       1.491e+01       1.349e+00           0.180          -0.136           0.974       8.085e-02         -0.0712
 895       1.143e+01       1.491e+01       1.324e+00           0.201          -0.142           0.969       5.073e-02          0.0593
 896       1.150e+01       1.491e+01       1.309e+00           0.215          -0.145           0.966       1.730e-02          0.1521
Strip 35
 897       1.163e+01       1.534e+01       1.346e+00          -0.175           0.135          -0.975       1.267e-02          0.2522
 898       1.156e+01       1.534e+01       1.353e+00          -0.095           0.113          -0.989       3.681e-02          0.2728
 899       1.144e+01       1.534e+01       1.355e+00           0.039           0.073          -0.997       5.871e-02          0.2797
 900       1.126e+01       1.534e+01       1.335e+00           0.162           0.032          -0.986       7.842e-02          0.2127
 901       1.103e+01       1.535e+01       1.292e+00           0.213           0.013          -0.977       9.386e-02          0.0999
 902       1.078e+01       1.535e+01       1.241e+00           0.183           0.026          -0.983       1.023e-01         -0.0214
 903       1.051e+01       1.535e+01       1.204e+00           0.093           0.065          -0.993       1.040e-01         -0.0659
 904       1.024e+01       1.535e+01       1.189e+00           0.017           0.101          -0.995       1.006e-01         -0.0066
 905       9.991e+00       1.535e+01       1.191e+00          -0.038           0.128          -0.991       9.187e-02          0.1063
 906       9.769e+00       1.535e+01       1.205e+00          -0.094           0.158          -0.983       7.809e-02          0.2612
 907       9.589e+00       1.535e+01       1.229e+00          -0.178           0.204          -0.963       6.027e-02          0.4700
 908       9.464e+00       1.535e+01       1.263e+00          -0.371           0.309          -0.876       4.091e-02          0.6545
 909       9.399e+00       1.534e+01       1.313e+00          -0.774           0.506          -0.381       2.981e-02         -0.3050
 910       9.399e+00       1.534e+01       1.373e+00          -0.770           0.430           0.471       2.848e-02         -3.0823
 911       9.464e+00       1.534e+01       1.421e+00          -0.373           0.154           0.915       4.062e-02         -3.6430
 912       9.589e+00       1.533e+01       1.455e+00          -0.173           0.031           0.984       5.980e-02         -1.9875
 913       9.769e+00       1.533e+01       1.478e+00          -0.091          -0.017           0.996       7.759e-02         -1.2427
 914       9.991e+00       1.533e+01       1.492e+00          -0.040          -0.045           0.998       9.135e-02         -0.8832
 915       1.024e+01       1.533e+01       1.497e+00          -0.002          -0.064           0.998       1.000e-01         -0.6776
 916       1.051e+01       1.533e+01       1.492e+00           0.039          -0.083           0.996       1.031e-01         -0.5493
 917       1.078e+01       1.533e+01       1.475e+00           0.090          -0.104           0.990       1.005e-01         -0.4237
 918       1.103e+01       1.533e+01       1.447e+00           0.131          -0.120           0.984       9.220e-02         -0.2858
 919       1.126e+01       1.534e+01       1.415e+00           0.159          -0.129           0.979       7.833e-02         -0.1737
 920       1.144e+01       1.534e+01       1.384e+00           0.180          -0.136           0.974       5.972e-02         -0.0891
 921       1.156e+01       1.534e+01       1.360e+00           0.201          -0.142           0.969       3.747e-02          0.0298
 922       1.163e+01       1.534e+01       1.347e+00           0.215          -0.145           0.966       1.278e-02          0.1174
Strip 36
 923       1.172e+01       1.567e+01       1.374e+00          -0.175           0.135          -0.975       8.680e-03          0.1129
 924       1.166e+01       1.567e+01       1.381e+00          -0.095           0.113          -0.989       2.522e-02          0.1252
 925       1.154e+01       1.567e+01       1.383e+00           0.039           0.073          -0.997       4.024e-02          0.1306
 926       1.137e+01       1.567e+01       1.364e+00           0.162           0.032          -0.986       5.376e-02          0.0804
 927       1.115e+01       1.567e+01       1.323e+00           0.213           0.013          -0.977       6.435e-02         -0.0066
 928       1.091e+01       1.567e+01       1.274e+00           0.183           0.026          -0.983       7.014e-02         -0.1044
 929       1.066e+01       1.568e+01       1.239e+00           0.093           0.065          -0.993       7.127e-02         -0.1398
 930       1.040e+01       1.568e+01       1.225e+00           0.017           0.101          -0.995       6.893e-02         -0.0885
 931       1.016e+01       1.568e+01       1.227e+00          -0.038           0.128          -0.991       6.295e-02          0.0070
 932       9.949e+00       1.568e+01       1.240e+00          -0.094           0.158          -0.983       5.351e-02          0.1486
 933       9.778e+00       1.568e+01       1.263e+00          -0.178           0.204          -0.963       4.128e-02          0.3626
 934       9.659e+00       1.567e+01       1.295e+00          -0.372           0.309          -0.875       2.801e-02          0.5985
 935       9.597e+00       1.567e+01       1.343e+00          -0.775           0.507          -0.379       2.041e-02         -0.1823
 936       9.597e+00       1.566e+01       1.400e+00          -0.769           0.430           0.473       1.954e-02         -2.7431
 937       9.659e+00       1.566e+01       1.446e+00          -0.373           0.154           0.915       2.787e-02         -3.3154
 938       9.778e+00       1.566e+01       1.478e+00          -0.173           0.031           0.985       4.100e-02         -1.7883
 939       9.949e+00       1.566e+01       1.500e+00          -0.091          -0.017           0.996       5.319e-02         -1.0925
 940       1.016e+01       1.565e+01       1.513e+00          -0.040          -0.045           0.998       6.261e-02         -0.7655
 941       1.040e+01       1.565e+01       1.518e+00          -0.002          -0.064           0.998       6.856e-02         -0.5950
 942       1.066e+01       1.565e+01       1.513e+00           0.039          -0.083           0.996       7.066e-02         -0.5018
 943       1.091e+01       1.566e+01       1.497e+00           0.090          -0.104           0.990       6.888e-02         -0.4126
 944       1.115e+01       1.566e+01       1.470e+00           0.131          -0.120           0.984       6.317e-02         -0.3131
 945       1.137e+01       1.566e+01       1.440e+00           0.159          -0.129           0.979       5.367e-02         -0.2381
 946       1.154e+01       1.566e+01       1.410e+00           0.180          -0.136           0.974       4.092e-02         -0.1865
 947       1.166e+01       1.567e+01       1.388e+00           0.201          -0.142           0.969       2.567e-02         -0.0892
 948       1.172e+01       1.567e+01       1.375e+00           0.215          -0.145           0.966       8.757e-03         -0.0103
Strip 37
 949       1.178e+01       1.588e+01       1.393e+00          -0.175           0.135          -0.975       5.057e-03         -0.5312
 950       1.172e+01       1.588e+01       1.400e+00          -0.095           0.113          -0.989       1.470e-02         -0.5366
 951       1.161e+01       1.588e+01       1.401e+00           0.039           0.073          -0.997       2.345e-02         -0.4471
 952       1.144e+01       1.588e+01       1.383e+00           0.162           0.032          -0.986       3.134e-02         -0.3069
 953       1.124e+01       1.589e+01       1.344e+00           0.213           0.013          -0.977       3.751e-02         -0.2223
 954       1.100e+01       1.589e+01       1.297e+00           0.183           0.026          -0.983       4.089e-02         -0.2242
 955       1.076e+01       1.589e+01       1.262e+00           0.093           0.065          -0.993       4.154e-02         -0.2217
 956       1.051e+01       1.590e+01       1.249e+00           0.017           0.101          -0.995       4.017e-02         -0.1736
 957       1.028e+01       1.590e+01       1.251e+00          -0.038           0.128          -0.991       3.669e-02         -0.1068
 958       1.007e+01       1.589e+01       1.264e+00          -0.094           0.158          -0.983       3.118e-02         -0.0111
 959       9.905e+00       1.589e+01       1.286e+00          -0.178           0.204          -0.963       2.405e-02          0.1584
 960       9.789e+00       1.589e+01       1.317e+00          -0.372           0.310          -0.875       1.631e-02          0.4095
 961       9.730e+00       1.589e+01       1.363e+00          -0.775           0.507          -0.377       1.189e-02         -0.1345
 962       9.730e+00       1.588e+01       1.418e+00          -0.769           0.429           0.474       1.140e-02         -2.2851
 963       9.789e+00       1.588e+01       1.463e+00          -0.373           0.154           0.915       1.625e-02         -2.8249
 964       9.905e+00       1.588e+01       1.493e+00          -0.173           0.031           0.985       2.391e-02         -1.4874
 965       1.007e+01       1.587e+01       1.514e+00          -0.091          -0.017           0.996       3.101e-02         -0.8997
 966       1.028e+01       1.587e+01       1.527e+00          -0.040          -0.045           0.998       3.649e-02         -0.6547
 967       1.051e+01       1.587e+01       1.532e+00          -0.002          -0.064           0.998       3.996e-02         -0.5429
 968       1.076e+01       1.587e+01       1.527e+00           0.039          -0.083           0.996       4.118e-02         -0.4930
 969       1.100e+01       1.587e+01       1.512e+00           0.090          -0.104           0.990       4.013e-02         -0.4626
 970       1.124e+01       1.588e+01       1.486e+00           0.131          -0.120           0.984       3.681e-02         -0.4774
 971       1.144e+01       1.588e+01       1.456e+00           0.159          -0.129           0.979       3.127e-02         -0.5833
 972       1.161e+01       1.588e+01       1.428e+00           0.180          -0.136           0.974       2.384e-02         -0.7261
 973       1.172e+01       1.588e+01       1.406e+00           0.201          -0.142           0.969       1.496e-02         -0.7325
 974       1.178e+01       1.588e+01       1.394e+00           0.215          -0.146           0.966       5.102e-03         -0.6865
Strip 38
 975       1.181e+01       1.599e+01       1.402e+00          -0.175           0.135          -0.975       1.660e-03         -1.3375
 976       1.175e+01       1.599e+01       1.409e+00          -0.095           0.113          -0.989       4.826e-03         -1.3916
 977       1.164e+01       1.599e+01       1.411e+00           0.039           0.073          -0.997       7.700e-03         -1.2132
 978       1.148e+01       1.599e+01       1.393e+00           0.162           0.032          -0.986       1.029e-02         -0.8215
 979       1.128e+01       1.600e+01       1.354e+00           0.213           0.013          -0.977       1.232e-02         -0.4897
 980       1.105e+01       1.600e+01       1.308e+00           0.183           0.026          -0.983       1.343e-02         -0.3371
 981       1.080e+01       1.600e+01       1.274e+00           0.093           0.065          -0.993       1.364e-02         -0.2700
 982       1.056e+01       1.601e+01       1.261e+00           0.017           0.101          -0.995       1.319e-02         -0.2182
 983       1.033e+01       1.601e+01       1.263e+00          -0.038           0.128          -0.991       1.205e-02         -0.1711
 984       1.013e+01       1.600e+01       1.275e+00          -0.094           0.158          -0.983       1.024e-02         -0.1088
 985       9.969e+00       1.600e+01       1.297e+00          -0.178           0.204          -0.963       7.894e-03          0.0145
 986       9.855e+00       1.600e+01       1.328e+00          -0.372           0.310          -0.875       5.353e-03          0.2304
 987       9.796e+00       1.600e+01       1.373e+00          -0.776           0.507          -0.376       3.901e-03         -0.0820
 988       9.796e+00       1.599e+01       1.427e+00          -0.769           0.429           0.475       3.743e-03         -1.7170
 989       9.855e+00       1.599e+01       1.471e+00          -0.372           0.154           0.915       5.339e-03         -2.2459
 990       9.969e+00       1.598e+01       1.501e+00          -0.173           0.030           0.985       7.851e-03         -1.1825
 991       1.013e+01       1.598e+01       1.522e+00          -0.091          -0.017           0.996       1.018e-02         -0.7494
 992       1.033e+01       1.598e+01       1.535e+00          -0.040          -0.045           0.998       1.198e-02         -0.5881
 993       1.056e+01       1.598e+01       1.539e+00          -0.002          -0.064           0.998       1.312e-02         -0.5138
 994       1.080e+01       1.598e+01       1.535e+00           0.039          -0.083           0.996       1.352e-02         -0.4792
 995       1.105e+01       1.598e+01       1.519e+00           0.090          -0.104           0.990       1.318e-02         -0.4695
 996       1.128e+01       1.599e+01       1.494e+00           0.131          -0.120           0.984       1.208e-02         -0.5570
 997       1.148e+01       1.599e+01       1.465e+00           0.159          -0.129           0.979       1.027e-02         -0.8503
 998       1.164e+01       1.599e+01       1.437e+00           0.180          -0.136           0.974       7.827e-03         -1.2943
 999       1.175e+01       1.599e+01       1.415e+00           0.201          -0.142           0.969       4.911e-03         -1.5135
1000       1.181e+01       1.599e+01       1.403e+00           0.215          -0.146           0.966       1.675e-03         -1.5510










