xflr5 v6.61

AerospaceSystemsPlanform
T1-10.0 m/s-Panel-Inviscid
QInf  =   10.000000 m/s
Alpha =    0.000000
Beta  =    0.000°
Phi   =    0.000°
Ctrl  =    0.000
CL    =    0.192557
Cy    =   -0.000000
Cd    =    0.001701     ICd   =    0.001701     PCd   =    0.000000
Cl   = -3.08725e-15
Cm   =   -0.282584
ICn   =    0.000000     PCn   =    0.000000 
XCP   =    7.564205     YCP   =    0.000000     ZCP   =    1.316243  
XNP   =    0.000000
Bending = 5557.014539

Main Wing
  y-span        Chord      Ai         Cl        PCd          ICd        CmGeom    CmAirf@chord/4    XTrtop    XTrBot      XCP       BM
  -16.0545     2.0460    -3.560    0.082157    0.000000    0.005112   -0.567380   -0.036966     0.0000    0.0000    0.6056    0.0000
  -15.9449     2.0818    -2.434    0.130982    0.000000    0.005568   -0.763842   -0.053120     0.0000    0.0000    0.6219    0.0641
  -15.7263     2.1531    -1.570    0.166706    0.000000    0.004570   -0.865137   -0.059915     0.0000    0.0000    0.6010    0.8117
  -15.4003     2.2595    -1.050    0.189844    0.000000    0.003480   -0.911389   -0.064709     0.0000    0.0000    0.5866    3.9460
  -14.9690     2.4002    -0.760    0.204298    0.000000    0.002711   -0.904779   -0.067816     0.0000    0.0000    0.5778   12.5296
  -14.4356     2.5743    -0.595    0.212666    0.000000    0.002210   -0.859209   -0.069771     0.0000    0.0000    0.5736   31.1443
  -13.8035     2.7805    -0.499    0.216687    0.000000    0.001887   -0.789698   -0.070951     0.0000    0.0000    0.5728   65.9791
  -13.0771     3.0176    -0.444    0.217645    0.000000    0.001686   -0.708825   -0.071640     0.0000    0.0000    0.5745   124.8474
  -12.2614     3.2838    -0.416    0.216464    0.000000    0.001570   -0.625391   -0.072029     0.0000    0.0000    0.5782   217.1301
  -11.3620     3.5773    -0.405    0.213781    0.000000    0.001512   -0.544823   -0.072239     0.0000    0.0000    0.5836   353.6327
  -10.3849     3.8961    -0.408    0.210033    0.000000    0.001495   -0.470134   -0.072350     0.0000    0.0000    0.5906   546.3402
   -9.3369     4.2381    -0.419    0.205460    0.000000    0.001502   -0.402627   -0.072393     0.0000    0.0000    0.5989   808.0644
   -8.2251     4.6009    -0.436    0.200226    0.000000    0.001522   -0.342688   -0.072398     0.0000    0.0000    0.6086   1151.9640
   -7.0571     4.9821    -0.457    0.194414    0.000000    0.001550   -0.290152   -0.072376     0.0000    0.0000    0.6199   1590.9606
   -5.8409     5.3789    -0.480    0.188039    0.000000    0.001578   -0.244538   -0.072338     0.0000    0.0000    0.6331   2137.0579
   -4.5849     5.7888    -0.506    0.181072    0.000000    0.001599   -0.205273   -0.072298     0.0000    0.0000    0.6485   2800.5849
   -3.2975     6.2089    -0.530    0.173401    0.000000    0.001605   -0.171770   -0.072263     0.0000    0.0000    0.6667   3589.4016
   -1.9875     6.6364    -0.544    0.164764    0.000000    0.001567   -0.143547   -0.072249     0.0000    0.0000    0.6879   4508.0752
   -0.6640     7.0683    -0.486    0.154263    0.000000    0.001317   -0.120614   -0.072556     0.0000    0.0000    0.7121   5557.0145
    0.6640     7.0683    -0.486    0.154263    0.000000    0.001317   -0.120614   -0.072556     0.0000    0.0000    0.7121   5557.0145
    1.9875     6.6364    -0.544    0.164764    0.000000    0.001567   -0.143547   -0.072249     0.0000    0.0000    0.6879   4508.0752
    3.2975     6.2089    -0.530    0.173401    0.000000    0.001605   -0.171770   -0.072263     0.0000    0.0000    0.6667   3589.4016
    4.5849     5.7888    -0.506    0.181072    0.000000    0.001599   -0.205273   -0.072298     0.0000    0.0000    0.6485   2800.5849
    5.8409     5.3789    -0.480    0.188039    0.000000    0.001578   -0.244538   -0.072338     0.0000    0.0000    0.6331   2137.0579
    7.0571     4.9821    -0.457    0.194414    0.000000    0.001550   -0.290152   -0.072376     0.0000    0.0000    0.6199   1590.9606
    8.2251     4.6009    -0.436    0.200226    0.000000    0.001522   -0.342688   -0.072398     0.0000    0.0000    0.6086   1151.9640
    9.3369     4.2381    -0.419    0.205460    0.000000    0.001502   -0.402627   -0.072393     0.0000    0.0000    0.5989   808.0644
   10.3849     3.8961    -0.408    0.210033    0.000000    0.001495   -0.470134   -0.072350     0.0000    0.0000    0.5906   546.3402
   11.3620     3.5773    -0.405    0.213781    0.000000    0.001512   -0.544823   -0.072239     0.0000    0.0000    0.5836   353.6327
   12.2614     3.2838    -0.416    0.216464    0.000000    0.001570   -0.625391   -0.072029     0.0000    0.0000    0.5782   217.1301
   13.0771     3.0176    -0.444    0.217645    0.000000    0.001686   -0.708825   -0.071640     0.0000    0.0000    0.5745   124.8474
   13.8035     2.7805    -0.499    0.216687    0.000000    0.001887   -0.789698   -0.070951     0.0000    0.0000    0.5728   65.9791
   14.4356     2.5743    -0.595    0.212666    0.000000    0.002210   -0.859209   -0.069771     0.0000    0.0000    0.5736   31.1443
   14.9690     2.4002    -0.760    0.204298    0.000000    0.002711   -0.904779   -0.067816     0.0000    0.0000    0.5778   12.5296
   15.4003     2.2595    -1.050    0.189844    0.000000    0.003480   -0.911389   -0.064709     0.0000    0.0000    0.5866    3.9460
   15.7263     2.1531    -1.570    0.166706    0.000000    0.004570   -0.865137   -0.059915     0.0000    0.0000    0.6010    0.8117
   15.9449     2.0818    -2.434    0.130982    0.000000    0.005568   -0.763842   -0.053120     0.0000    0.0000    0.6219    0.0641
   16.0545     2.0460    -3.560    0.082157    0.000000    0.005112   -0.567380   -0.036966     0.0000    0.0000    0.6056    0.0000


Main Wing Cp Coefficients
 Panel     CtrlPt.x        CtrlPt.y        CtrlPt.z       Nx      Ny       Nz        Area       Cp
Main WingCp Coefficients
Strip 1
  13       1.181e+01      -1.599e+01       1.402e+00          -0.175          -0.135          -0.975       1.660e-03          0.1733
  14       1.175e+01      -1.599e+01       1.409e+00          -0.095          -0.113          -0.989       4.826e-03          0.1690
  15       1.164e+01      -1.599e+01       1.411e+00           0.039          -0.073          -0.997       7.700e-03          0.1745
  16       1.148e+01      -1.599e+01       1.393e+00           0.162          -0.032          -0.986       1.029e-02          0.1454
  17       1.128e+01      -1.600e+01       1.354e+00           0.213          -0.013          -0.977       1.232e-02          0.0615
  18       1.105e+01      -1.600e+01       1.308e+00           0.183          -0.026          -0.983       1.343e-02         -0.0605
  19       1.080e+01      -1.600e+01       1.274e+00           0.093          -0.065          -0.993       1.364e-02         -0.1482
  20       1.056e+01      -1.601e+01       1.261e+00           0.017          -0.101          -0.995       1.319e-02         -0.1704
  21       1.033e+01      -1.601e+01       1.263e+00          -0.038          -0.128          -0.991       1.205e-02         -0.1790
  22       1.013e+01      -1.600e+01       1.275e+00          -0.094          -0.158          -0.983       1.024e-02         -0.2031
  23       9.969e+00      -1.600e+01       1.297e+00          -0.178          -0.204          -0.963       7.894e-03         -0.2572
  24       9.855e+00      -1.600e+01       1.328e+00          -0.372          -0.310          -0.875       5.353e-03         -0.2642
  25       9.796e+00      -1.600e+01       1.373e+00          -0.776          -0.507          -0.376       3.901e-03          0.3343
  26       9.796e+00      -1.599e+01       1.427e+00          -0.769          -0.429           0.475       3.743e-03          0.1823
  27       9.855e+00      -1.599e+01       1.471e+00          -0.372          -0.154           0.915       5.339e-03         -0.4862
  28       9.969e+00      -1.598e+01       1.501e+00          -0.173          -0.030           0.985       7.851e-03         -0.3753
  29       1.013e+01      -1.598e+01       1.522e+00          -0.091           0.017           0.996       1.018e-02         -0.2659
  30       1.033e+01      -1.598e+01       1.535e+00          -0.040           0.045           0.998       1.198e-02         -0.2166
  31       1.056e+01      -1.598e+01       1.539e+00          -0.002           0.064           0.998       1.312e-02         -0.1912
  32       1.080e+01      -1.598e+01       1.535e+00           0.039           0.083           0.996       1.352e-02         -0.1759
  33       1.105e+01      -1.598e+01       1.519e+00           0.090           0.104           0.990       1.318e-02         -0.1460
  34       1.128e+01      -1.599e+01       1.494e+00           0.131           0.120           0.984       1.208e-02         -0.0966
  35       1.148e+01      -1.599e+01       1.465e+00           0.159           0.129           0.979       1.027e-02         -0.0615
  36       1.164e+01      -1.599e+01       1.437e+00           0.180           0.136           0.974       7.827e-03         -0.0611
  37       1.175e+01      -1.599e+01       1.415e+00           0.201           0.142           0.969       4.911e-03         -0.0356
  38       1.181e+01      -1.599e+01       1.403e+00           0.215           0.146           0.966       1.675e-03          0.0004
Strip 2
  39       1.178e+01      -1.588e+01       1.393e+00          -0.175          -0.135          -0.975       5.057e-03          0.2472
  40       1.172e+01      -1.588e+01       1.400e+00          -0.095          -0.113          -0.989       1.470e-02          0.2693
  41       1.161e+01      -1.588e+01       1.401e+00           0.039          -0.073          -0.997       2.345e-02          0.2883
  42       1.144e+01      -1.588e+01       1.383e+00           0.162          -0.032          -0.986       3.134e-02          0.2313
  43       1.124e+01      -1.589e+01       1.344e+00           0.213          -0.013          -0.977       3.751e-02          0.1027
  44       1.100e+01      -1.589e+01       1.297e+00           0.183          -0.026          -0.983       4.089e-02         -0.0676
  45       1.076e+01      -1.589e+01       1.262e+00           0.093          -0.065          -0.993       4.154e-02         -0.1877
  46       1.051e+01      -1.590e+01       1.249e+00           0.017          -0.101          -0.995       4.017e-02         -0.2171
  47       1.028e+01      -1.590e+01       1.251e+00          -0.038          -0.128          -0.991       3.669e-02         -0.2276
  48       1.007e+01      -1.589e+01       1.264e+00          -0.094          -0.158          -0.983       3.118e-02         -0.2581
  49       9.905e+00      -1.589e+01       1.286e+00          -0.178          -0.204          -0.963       2.405e-02         -0.3144
  50       9.789e+00      -1.589e+01       1.317e+00          -0.372          -0.310          -0.875       1.631e-02         -0.2898
  51       9.730e+00      -1.589e+01       1.363e+00          -0.775          -0.507          -0.377       1.189e-02          0.4313
  52       9.730e+00      -1.588e+01       1.418e+00          -0.769          -0.429           0.474       1.140e-02          0.2337
  53       9.789e+00      -1.588e+01       1.463e+00          -0.373          -0.154           0.915       1.625e-02         -0.5693
  54       9.905e+00      -1.588e+01       1.493e+00          -0.173          -0.031           0.985       2.391e-02         -0.4682
  55       1.007e+01      -1.587e+01       1.514e+00          -0.091           0.017           0.996       3.101e-02         -0.3388
  56       1.028e+01      -1.587e+01       1.527e+00          -0.040           0.045           0.998       3.649e-02         -0.2716
  57       1.051e+01      -1.587e+01       1.532e+00          -0.002           0.064           0.998       3.996e-02         -0.2378
  58       1.076e+01      -1.587e+01       1.527e+00           0.039           0.083           0.996       4.118e-02         -0.2207
  59       1.100e+01      -1.587e+01       1.512e+00           0.090           0.104           0.990       4.013e-02         -0.1874
  60       1.124e+01      -1.588e+01       1.486e+00           0.131           0.120           0.984       3.681e-02         -0.1309
  61       1.144e+01      -1.588e+01       1.456e+00           0.159           0.129           0.979       3.127e-02         -0.0845
  62       1.161e+01      -1.588e+01       1.428e+00           0.180           0.136           0.974       2.384e-02         -0.0566
  63       1.172e+01      -1.588e+01       1.406e+00           0.201           0.142           0.969       1.496e-02          0.0093
  64       1.178e+01      -1.588e+01       1.394e+00           0.215           0.146           0.966       5.102e-03          0.0684
Strip 3
  65       1.172e+01      -1.567e+01       1.374e+00          -0.175          -0.135          -0.975       8.680e-03          0.3046
  66       1.166e+01      -1.567e+01       1.381e+00          -0.095          -0.113          -0.989       2.522e-02          0.3317
  67       1.154e+01      -1.567e+01       1.383e+00           0.039          -0.073          -0.997       4.024e-02          0.3462
  68       1.137e+01      -1.567e+01       1.364e+00           0.162          -0.032          -0.986       5.376e-02          0.2716
  69       1.115e+01      -1.567e+01       1.323e+00           0.213          -0.013          -0.977       6.435e-02          0.1196
  70       1.091e+01      -1.567e+01       1.274e+00           0.183          -0.026          -0.983       7.014e-02         -0.0785
  71       1.066e+01      -1.568e+01       1.239e+00           0.093          -0.065          -0.993       7.127e-02         -0.2222
  72       1.040e+01      -1.568e+01       1.225e+00           0.017          -0.101          -0.995       6.893e-02         -0.2610
  73       1.016e+01      -1.568e+01       1.227e+00          -0.038          -0.128          -0.991       6.295e-02         -0.2706
  74       9.949e+00      -1.568e+01       1.240e+00          -0.094          -0.158          -0.983       5.351e-02         -0.2879
  75       9.778e+00      -1.568e+01       1.263e+00          -0.178          -0.204          -0.963       4.128e-02         -0.3115
  76       9.659e+00      -1.567e+01       1.295e+00          -0.372          -0.309          -0.875       2.801e-02         -0.2403
  77       9.597e+00      -1.567e+01       1.343e+00          -0.775          -0.507          -0.379       2.041e-02          0.5388
  78       9.597e+00      -1.566e+01       1.400e+00          -0.769          -0.430           0.473       1.954e-02          0.3053
  79       9.659e+00      -1.566e+01       1.446e+00          -0.373          -0.154           0.915       2.787e-02         -0.5785
  80       9.778e+00      -1.566e+01       1.478e+00          -0.173          -0.031           0.985       4.100e-02         -0.5088
  81       9.949e+00      -1.566e+01       1.500e+00          -0.091           0.017           0.996       5.319e-02         -0.3983
  82       1.016e+01      -1.565e+01       1.513e+00          -0.040           0.045           0.998       6.261e-02         -0.3329
  83       1.040e+01      -1.565e+01       1.518e+00          -0.002           0.064           0.998       6.856e-02         -0.2933
  84       1.066e+01      -1.565e+01       1.513e+00           0.039           0.083           0.996       7.066e-02         -0.2708
  85       1.091e+01      -1.566e+01       1.497e+00           0.090           0.104           0.990       6.888e-02         -0.2286
  86       1.115e+01      -1.566e+01       1.470e+00           0.131           0.120           0.984       6.317e-02         -0.1556
  87       1.137e+01      -1.566e+01       1.440e+00           0.159           0.129           0.979       5.367e-02         -0.0857
  88       1.154e+01      -1.566e+01       1.410e+00           0.180           0.136           0.974       4.092e-02         -0.0318
  89       1.166e+01      -1.567e+01       1.388e+00           0.201           0.142           0.969       2.567e-02          0.0566
  90       1.172e+01      -1.567e+01       1.375e+00           0.215           0.145           0.966       8.757e-03          0.1259
Strip 4
  91       1.163e+01      -1.534e+01       1.346e+00          -0.175          -0.135          -0.975       1.267e-02          0.3211
  92       1.156e+01      -1.534e+01       1.353e+00          -0.095          -0.113          -0.989       3.681e-02          0.3497
  93       1.144e+01      -1.534e+01       1.355e+00           0.039          -0.073          -0.997       5.871e-02          0.3638
  94       1.126e+01      -1.534e+01       1.335e+00           0.162          -0.032          -0.986       7.842e-02          0.2835
  95       1.103e+01      -1.535e+01       1.292e+00           0.213          -0.013          -0.977       9.386e-02          0.1210
  96       1.078e+01      -1.535e+01       1.241e+00           0.183          -0.026          -0.983       1.023e-01         -0.0906
  97       1.051e+01      -1.535e+01       1.204e+00           0.093          -0.065          -0.993       1.040e-01         -0.2449
  98       1.024e+01      -1.535e+01       1.189e+00           0.017          -0.101          -0.995       1.006e-01         -0.2852
  99       9.991e+00      -1.535e+01       1.191e+00          -0.038          -0.128          -0.991       9.187e-02         -0.2867
 100       9.769e+00      -1.535e+01       1.205e+00          -0.094          -0.158          -0.983       7.809e-02         -0.2890
 101       9.589e+00      -1.535e+01       1.229e+00          -0.178          -0.204          -0.963       6.027e-02         -0.2985
 102       9.464e+00      -1.535e+01       1.263e+00          -0.371          -0.309          -0.876       4.091e-02         -0.2146
 103       9.399e+00      -1.534e+01       1.313e+00          -0.774          -0.506          -0.381       2.981e-02          0.5676
 104       9.399e+00      -1.534e+01       1.373e+00          -0.770          -0.430           0.471       2.848e-02          0.3173
 105       9.464e+00      -1.534e+01       1.421e+00          -0.373          -0.154           0.915       4.062e-02         -0.5889
 106       9.589e+00      -1.533e+01       1.455e+00          -0.173          -0.031           0.984       5.980e-02         -0.5246
 107       9.769e+00      -1.533e+01       1.478e+00          -0.091           0.017           0.996       7.759e-02         -0.4241
 108       9.991e+00      -1.533e+01       1.492e+00          -0.040           0.045           0.998       9.135e-02         -0.3699
 109       1.024e+01      -1.533e+01       1.497e+00          -0.002           0.064           0.998       1.000e-01         -0.3353
 110       1.051e+01      -1.533e+01       1.492e+00           0.039           0.083           0.996       1.031e-01         -0.3118
 111       1.078e+01      -1.533e+01       1.475e+00           0.090           0.104           0.990       1.005e-01         -0.2639
 112       1.103e+01      -1.533e+01       1.447e+00           0.131           0.120           0.984       9.220e-02         -0.1808
 113       1.126e+01      -1.534e+01       1.415e+00           0.159           0.129           0.979       7.833e-02         -0.0992
 114       1.144e+01      -1.534e+01       1.384e+00           0.180           0.136           0.974       5.972e-02         -0.0342
 115       1.156e+01      -1.534e+01       1.360e+00           0.201           0.142           0.969       3.747e-02          0.0642
 116       1.163e+01      -1.534e+01       1.347e+00           0.215           0.145           0.966       1.278e-02          0.1388
Strip 5
 117       1.150e+01      -1.491e+01       1.308e+00          -0.175          -0.135          -0.975       1.715e-02          0.3245
 118       1.143e+01      -1.491e+01       1.316e+00          -0.095          -0.113          -0.989       4.983e-02          0.3536
 119       1.130e+01      -1.491e+01       1.318e+00           0.039          -0.073          -0.997       7.944e-02          0.3676
 120       1.111e+01      -1.491e+01       1.297e+00           0.162          -0.032          -0.986       1.061e-01          0.2851
 121       1.087e+01      -1.492e+01       1.251e+00           0.213          -0.013          -0.977       1.270e-01          0.1186
 122       1.061e+01      -1.492e+01       1.197e+00           0.183          -0.026          -0.983       1.384e-01         -0.0977
 123       1.032e+01      -1.492e+01       1.158e+00           0.093          -0.065          -0.993       1.407e-01         -0.2547
 124       1.003e+01      -1.492e+01       1.142e+00           0.017          -0.101          -0.995       1.361e-01         -0.2928
 125       9.766e+00      -1.492e+01       1.144e+00          -0.038          -0.128          -0.991       1.243e-01         -0.2886
 126       9.530e+00      -1.492e+01       1.159e+00          -0.094          -0.158          -0.983       1.057e-01         -0.2850
 127       9.340e+00      -1.492e+01       1.184e+00          -0.178          -0.204          -0.963       8.161e-02         -0.2905
 128       9.206e+00      -1.492e+01       1.221e+00          -0.371          -0.309          -0.876       5.543e-02         -0.2018
 129       9.137e+00      -1.491e+01       1.274e+00          -0.773          -0.506          -0.383       4.040e-02          0.5779
 130       9.137e+00      -1.491e+01       1.337e+00          -0.771          -0.431           0.468       3.849e-02          0.3195
 131       9.206e+00      -1.491e+01       1.389e+00          -0.374          -0.155           0.915       5.490e-02         -0.5985
 132       9.340e+00      -1.490e+01       1.424e+00          -0.173          -0.031           0.984       8.088e-02         -0.5343
 133       9.530e+00      -1.490e+01       1.449e+00          -0.091           0.017           0.996       1.050e-01         -0.4361
 134       9.766e+00      -1.490e+01       1.464e+00          -0.040           0.045           0.998       1.236e-01         -0.3875
 135       1.003e+01      -1.490e+01       1.469e+00          -0.002           0.064           0.998       1.354e-01         -0.3582
 136       1.032e+01      -1.490e+01       1.464e+00           0.039           0.083           0.996       1.396e-01         -0.3374
 137       1.061e+01      -1.490e+01       1.445e+00           0.090           0.104           0.990       1.361e-01         -0.2879
 138       1.087e+01      -1.490e+01       1.416e+00           0.131           0.120           0.984       1.248e-01         -0.1998
 139       1.111e+01      -1.491e+01       1.382e+00           0.159           0.129           0.979       1.060e-01         -0.1120
 140       1.130e+01      -1.491e+01       1.349e+00           0.180           0.136           0.974       8.085e-02         -0.0411
 141       1.143e+01      -1.491e+01       1.324e+00           0.201           0.142           0.969       5.073e-02          0.0624
 142       1.150e+01      -1.491e+01       1.309e+00           0.215           0.145           0.966       1.730e-02          0.1396
Strip 6
 143       1.135e+01      -1.438e+01       1.262e+00          -0.175          -0.135          -0.975       2.223e-02          0.3242
 144       1.128e+01      -1.438e+01       1.271e+00          -0.095          -0.113          -0.989       6.458e-02          0.3536
 145       1.113e+01      -1.438e+01       1.273e+00           0.039          -0.073          -0.997       1.029e-01          0.3678
 146       1.093e+01      -1.438e+01       1.250e+00           0.162          -0.032          -0.986       1.374e-01          0.2848
 147       1.068e+01      -1.438e+01       1.201e+00           0.213          -0.013          -0.977       1.644e-01          0.1170
 148       1.039e+01      -1.439e+01       1.143e+00           0.183          -0.026          -0.983       1.792e-01         -0.1006
 149       1.008e+01      -1.439e+01       1.100e+00           0.093          -0.065          -0.993       1.822e-01         -0.2575
 150       9.776e+00      -1.439e+01       1.083e+00           0.017          -0.101          -0.995       1.764e-01         -0.2939
 151       9.488e+00      -1.439e+01       1.086e+00          -0.038          -0.128          -0.991       1.611e-01         -0.2874
 152       9.235e+00      -1.439e+01       1.102e+00          -0.094          -0.158          -0.983       1.370e-01         -0.2822
 153       9.030e+00      -1.439e+01       1.129e+00          -0.178          -0.204          -0.963       1.058e-01         -0.2867
 154       8.887e+00      -1.439e+01       1.168e+00          -0.370          -0.309          -0.876       7.193e-02         -0.1962
 155       8.814e+00      -1.438e+01       1.225e+00          -0.772          -0.505          -0.386       5.242e-02          0.5812
 156       8.814e+00      -1.438e+01       1.293e+00          -0.772          -0.432           0.466       4.981e-02          0.3212
 157       8.887e+00      -1.438e+01       1.348e+00          -0.374          -0.155           0.914       7.104e-02         -0.6045
 158       9.030e+00      -1.437e+01       1.387e+00          -0.173          -0.031           0.984       1.047e-01         -0.5400
 159       9.235e+00      -1.437e+01       1.413e+00          -0.091           0.017           0.996       1.360e-01         -0.4423
 160       9.488e+00      -1.437e+01       1.429e+00          -0.040           0.045           0.998       1.602e-01         -0.3958
 161       9.776e+00      -1.437e+01       1.435e+00          -0.002           0.064           0.998       1.754e-01         -0.3693
 162       1.008e+01      -1.437e+01       1.429e+00           0.039           0.083           0.996       1.809e-01         -0.3505
 163       1.039e+01      -1.437e+01       1.409e+00           0.090           0.104           0.990       1.764e-01         -0.3013
 164       1.068e+01      -1.437e+01       1.378e+00           0.131           0.120           0.984       1.618e-01         -0.2114
 165       1.093e+01      -1.438e+01       1.341e+00           0.159           0.129           0.979       1.375e-01         -0.1209
 166       1.113e+01      -1.438e+01       1.306e+00           0.180           0.136           0.974       1.048e-01         -0.0471
 167       1.128e+01      -1.438e+01       1.278e+00           0.201           0.142           0.969       6.576e-02          0.0590
 168       1.135e+01      -1.438e+01       1.263e+00           0.215           0.145           0.966       2.243e-02          0.1376
Strip 7
 169       1.117e+01      -1.375e+01       1.207e+00          -0.175          -0.135          -0.975       2.800e-02          0.3234
 170       1.109e+01      -1.375e+01       1.217e+00          -0.095          -0.113          -0.989       8.131e-02          0.3531
 171       1.094e+01      -1.375e+01       1.219e+00           0.039          -0.073          -0.997       1.296e-01          0.3677
 172       1.072e+01      -1.375e+01       1.194e+00           0.162          -0.032          -0.986       1.729e-01          0.2847
 173       1.044e+01      -1.375e+01       1.141e+00           0.213          -0.013          -0.977       2.069e-01          0.1165
 174       1.013e+01      -1.376e+01       1.079e+00           0.183          -0.025          -0.983       2.255e-01         -0.1015
 175       9.800e+00      -1.376e+01       1.033e+00           0.094          -0.065          -0.993       2.293e-01         -0.2581
 176       9.470e+00      -1.376e+01       1.014e+00           0.017          -0.101          -0.995       2.220e-01         -0.2937
 177       9.159e+00      -1.376e+01       1.017e+00          -0.038          -0.128          -0.991       2.029e-01         -0.2865
 178       8.885e+00      -1.376e+01       1.034e+00          -0.094          -0.158          -0.983       1.726e-01         -0.2811
 179       8.664e+00      -1.376e+01       1.064e+00          -0.178          -0.203          -0.963       1.333e-01         -0.2857
 180       8.510e+00      -1.376e+01       1.106e+00          -0.370          -0.308          -0.877       9.068e-02         -0.1951
 181       8.430e+00      -1.375e+01       1.167e+00          -0.771          -0.505          -0.389       6.609e-02          0.5808
 182       8.430e+00      -1.375e+01       1.240e+00          -0.774          -0.433           0.463       6.261e-02          0.3247
 183       8.510e+00      -1.375e+01       1.301e+00          -0.375          -0.156           0.914       8.931e-02         -0.6058
 184       8.664e+00      -1.374e+01       1.342e+00          -0.173          -0.031           0.984       1.318e-01         -0.5419
 185       8.885e+00      -1.374e+01       1.370e+00          -0.091           0.017           0.996       1.711e-01         -0.4448
 186       9.159e+00      -1.374e+01       1.388e+00          -0.040           0.045           0.998       2.016e-01         -0.3994
 187       9.470e+00      -1.374e+01       1.394e+00          -0.002           0.064           0.998       2.209e-01         -0.3743
 188       9.800e+00      -1.374e+01       1.388e+00           0.039           0.083           0.996       2.277e-01         -0.3567
 189       1.013e+01      -1.374e+01       1.366e+00           0.090           0.104           0.990       2.221e-01         -0.3079
 190       1.044e+01      -1.374e+01       1.332e+00           0.131           0.120           0.984       2.037e-01         -0.2175
 191       1.072e+01      -1.375e+01       1.292e+00           0.159           0.129           0.979       1.731e-01         -0.1259
 192       1.094e+01      -1.375e+01       1.255e+00           0.180           0.136           0.974       1.320e-01         -0.0509
 193       1.109e+01      -1.375e+01       1.225e+00           0.201           0.142           0.969       8.282e-02          0.0563
 194       1.117e+01      -1.375e+01       1.208e+00           0.215           0.145           0.966       2.825e-02          0.1356
Strip 8
 195       1.096e+01      -1.303e+01       1.145e+00          -0.175          -0.135          -0.975       3.450e-02          0.3228
 196       1.088e+01      -1.303e+01       1.155e+00          -0.095          -0.113          -0.989       1.002e-01          0.3528
 197       1.071e+01      -1.303e+01       1.157e+00           0.039          -0.073          -0.997       1.596e-01          0.3678
 198       1.047e+01      -1.303e+01       1.130e+00           0.162          -0.032          -0.986       2.130e-01          0.2848
 199       1.017e+01      -1.303e+01       1.073e+00           0.214          -0.013          -0.977       2.547e-01          0.1164
 200       9.835e+00      -1.303e+01       1.005e+00           0.184          -0.025          -0.983       2.777e-01         -0.1018
 201       9.476e+00      -1.304e+01       9.546e-01           0.094          -0.065          -0.993       2.824e-01         -0.2585
 202       9.118e+00      -1.304e+01       9.345e-01           0.017          -0.101          -0.995       2.735e-01         -0.2940
 203       8.780e+00      -1.304e+01       9.376e-01          -0.038          -0.128          -0.991       2.500e-01         -0.2867
 204       8.483e+00      -1.304e+01       9.566e-01          -0.094          -0.158          -0.983       2.127e-01         -0.2816
 205       8.243e+00      -1.303e+01       9.883e-01          -0.178          -0.203          -0.963       1.644e-01         -0.2868
 206       8.076e+00      -1.303e+01       1.034e+00          -0.369          -0.308          -0.877       1.119e-01         -0.1975
 207       7.989e+00      -1.303e+01       1.101e+00          -0.769          -0.505          -0.391       8.153e-02          0.5782
 208       7.989e+00      -1.303e+01       1.180e+00          -0.775          -0.434           0.460       7.703e-02          0.3302
 209       8.076e+00      -1.302e+01       1.246e+00          -0.375          -0.156           0.914       1.099e-01         -0.6031
 210       8.243e+00      -1.302e+01       1.291e+00          -0.173          -0.031           0.984       1.622e-01         -0.5410
 211       8.483e+00      -1.302e+01       1.321e+00          -0.091           0.017           0.996       2.107e-01         -0.4448
 212       8.780e+00      -1.302e+01       1.340e+00          -0.040           0.045           0.998       2.483e-01         -0.4003
 213       9.118e+00      -1.302e+01       1.347e+00          -0.002           0.064           0.998       2.721e-01         -0.3762
 214       9.476e+00      -1.302e+01       1.340e+00           0.039           0.083           0.996       2.806e-01         -0.3592
 215       9.835e+00      -1.302e+01       1.317e+00           0.090           0.104           0.990       2.737e-01         -0.3107
 216       1.017e+01      -1.302e+01       1.280e+00           0.131           0.120           0.984       2.511e-01         -0.2204
 217       1.047e+01      -1.302e+01       1.237e+00           0.159           0.129           0.979       2.134e-01         -0.1285
 218       1.071e+01      -1.302e+01       1.196e+00           0.180           0.136           0.974       1.627e-01         -0.0531
 219       1.088e+01      -1.303e+01       1.164e+00           0.201           0.142           0.969       1.021e-01          0.0547
 220       1.096e+01      -1.303e+01       1.145e+00           0.215           0.145           0.966       3.482e-02          0.1343
Strip 9
 221       1.073e+01      -1.221e+01       1.074e+00          -0.175          -0.135          -0.975       4.177e-02          0.3224
 222       1.064e+01      -1.221e+01       1.085e+00          -0.095          -0.113          -0.989       1.213e-01          0.3527
 223       1.045e+01      -1.221e+01       1.087e+00           0.039          -0.073          -0.997       1.932e-01          0.3679
 224       1.019e+01      -1.222e+01       1.058e+00           0.162          -0.032          -0.986       2.577e-01          0.2849
 225       9.870e+00      -1.222e+01       9.956e-01           0.214          -0.013          -0.977       3.082e-01          0.1163
 226       9.502e+00      -1.222e+01       9.215e-01           0.184          -0.025          -0.983       3.359e-01         -0.1022
 227       9.112e+00      -1.222e+01       8.670e-01           0.094          -0.065          -0.993       3.418e-01         -0.2591
 228       8.722e+00      -1.222e+01       8.452e-01           0.017          -0.101          -0.995       3.310e-01         -0.2947
 229       8.355e+00      -1.222e+01       8.486e-01          -0.038          -0.128          -0.991       3.026e-01         -0.2878
 230       8.031e+00      -1.222e+01       8.692e-01          -0.094          -0.158          -0.983       2.575e-01         -0.2832
 231       7.771e+00      -1.222e+01       9.037e-01          -0.177          -0.203          -0.963       1.991e-01         -0.2896
 232       7.588e+00      -1.222e+01       9.533e-01          -0.368          -0.308          -0.877       1.356e-01         -0.2025
 233       7.494e+00      -1.222e+01       1.027e+00          -0.768          -0.504          -0.394       9.881e-02          0.5740
 234       7.494e+00      -1.221e+01       1.113e+00          -0.776          -0.435           0.458       9.312e-02          0.3375
 235       7.588e+00      -1.221e+01       1.184e+00          -0.376          -0.156           0.913       1.328e-01         -0.5972
 236       7.771e+00      -1.221e+01       1.233e+00          -0.173          -0.031           0.984       1.962e-01         -0.5377
 237       8.031e+00      -1.221e+01       1.266e+00          -0.091           0.017           0.996       2.550e-01         -0.4430
 238       8.355e+00      -1.221e+01       1.287e+00          -0.040           0.045           0.998       3.005e-01         -0.3995
 239       8.722e+00      -1.221e+01       1.294e+00          -0.002           0.064           0.998       3.293e-01         -0.3760
 240       9.112e+00      -1.221e+01       1.287e+00           0.039           0.083           0.996       3.397e-01         -0.3596
 241       9.502e+00      -1.221e+01       1.262e+00           0.090           0.104           0.990       3.313e-01         -0.3115
 242       9.870e+00      -1.221e+01       1.221e+00           0.131           0.120           0.984       3.040e-01         -0.2214
 243       1.019e+01      -1.221e+01       1.174e+00           0.159           0.129           0.979       2.583e-01         -0.1296
 244       1.045e+01      -1.221e+01       1.130e+00           0.179           0.136           0.974       1.970e-01         -0.0541
 245       1.064e+01      -1.221e+01       1.095e+00           0.201           0.142           0.969       1.236e-01          0.0538
 246       1.073e+01      -1.221e+01       1.075e+00           0.215           0.145           0.966       4.216e-02          0.1335
Strip 10
 247       1.047e+01      -1.132e+01       9.960e-01          -0.175          -0.135          -0.975       4.980e-02          0.3223
 248       1.037e+01      -1.132e+01       1.008e+00          -0.095          -0.113          -0.989       1.446e-01          0.3527
 249       1.017e+01      -1.132e+01       1.010e+00           0.039          -0.073          -0.997       2.302e-01          0.3680
 250       9.888e+00      -1.132e+01       9.790e-01           0.162          -0.032          -0.986       3.070e-01          0.2850
 251       9.536e+00      -1.132e+01       9.107e-01           0.214          -0.013          -0.977       3.671e-01          0.1161
 252       9.136e+00      -1.132e+01       8.298e-01           0.184          -0.025          -0.983       4.002e-01         -0.1029
 253       8.711e+00      -1.133e+01       7.705e-01           0.094          -0.065          -0.993       4.072e-01         -0.2602
 254       8.286e+00      -1.133e+01       7.467e-01           0.017          -0.101          -0.995       3.945e-01         -0.2960
 255       7.886e+00      -1.133e+01       7.504e-01          -0.038          -0.128          -0.991       3.607e-01         -0.2895
 256       7.534e+00      -1.133e+01       7.729e-01          -0.093          -0.158          -0.983       3.070e-01         -0.2858
 257       7.250e+00      -1.133e+01       8.105e-01          -0.177          -0.203          -0.963       2.374e-01         -0.2936
 258       7.051e+00      -1.132e+01       8.646e-01          -0.368          -0.308          -0.877       1.618e-01         -0.2094
 259       6.948e+00      -1.132e+01       9.444e-01          -0.767          -0.504          -0.396       1.179e-01          0.5687
 260       6.948e+00      -1.132e+01       1.038e+00          -0.777          -0.435           0.455       1.108e-01          0.3461
 261       7.051e+00      -1.131e+01       1.116e+00          -0.376          -0.157           0.913       1.581e-01         -0.5885
 262       7.250e+00      -1.131e+01       1.169e+00          -0.174          -0.031           0.984       2.337e-01         -0.5326
 263       7.534e+00      -1.131e+01       1.206e+00          -0.091           0.017           0.996       3.038e-01         -0.4399
 264       7.886e+00      -1.131e+01       1.228e+00          -0.040           0.045           0.998       3.581e-01         -0.3974
 265       8.286e+00      -1.131e+01       1.236e+00          -0.002           0.064           0.998       3.925e-01         -0.3747
 266       8.711e+00      -1.131e+01       1.228e+00           0.039           0.083           0.996       4.049e-01         -0.3589
 267       9.136e+00      -1.131e+01       1.201e+00           0.090           0.104           0.991       3.950e-01         -0.3112
 268       9.536e+00      -1.131e+01       1.157e+00           0.131           0.120           0.984       3.624e-01         -0.2214
 269       9.888e+00      -1.131e+01       1.105e+00           0.158           0.129           0.979       3.080e-01         -0.1299
 270       1.017e+01      -1.132e+01       1.057e+00           0.179           0.136           0.974       2.348e-01         -0.0545
 271       1.037e+01      -1.132e+01       1.019e+00           0.201           0.142           0.969       1.474e-01          0.0534
 272       1.047e+01      -1.132e+01       9.971e-01           0.215           0.145           0.966       5.027e-02          0.1331
Strip 11
 273       1.019e+01      -1.035e+01       9.113e-01          -0.175          -0.135          -0.975       5.855e-02          0.3221
 274       1.008e+01      -1.034e+01       9.243e-01          -0.095          -0.113          -0.989       1.700e-01          0.3526
 275       9.867e+00      -1.034e+01       9.270e-01           0.039          -0.073          -0.997       2.706e-01          0.3680
 276       9.557e+00      -1.035e+01       8.928e-01           0.162          -0.032          -0.986       3.608e-01          0.2850
 277       9.174e+00      -1.035e+01       8.184e-01           0.214          -0.013          -0.977       4.313e-01          0.1158
 278       8.738e+00      -1.035e+01       7.303e-01           0.184          -0.025          -0.983       4.701e-01         -0.1038
 279       8.275e+00      -1.035e+01       6.656e-01           0.094          -0.065          -0.993       4.785e-01         -0.2615
 280       7.812e+00      -1.035e+01       6.397e-01           0.017          -0.101          -0.995       4.636e-01         -0.2978
 281       7.376e+00      -1.035e+01       6.437e-01          -0.038          -0.128          -0.991       4.240e-01         -0.2918
 282       6.993e+00      -1.035e+01       6.682e-01          -0.093          -0.158          -0.983       3.610e-01         -0.2890
 283       6.684e+00      -1.035e+01       7.092e-01          -0.177          -0.203          -0.963       2.792e-01         -0.2985
 284       6.467e+00      -1.035e+01       7.681e-01          -0.368          -0.307          -0.878       1.904e-01         -0.2178
 285       6.355e+00      -1.035e+01       8.551e-01          -0.767          -0.503          -0.399       1.388e-01          0.5626
 286       6.355e+00      -1.034e+01       9.576e-01          -0.777          -0.436           0.453       1.301e-01          0.3557
 287       6.467e+00      -1.034e+01       1.042e+00          -0.377          -0.157           0.913       1.856e-01         -0.5777
 288       6.684e+00      -1.034e+01       1.100e+00          -0.174          -0.031           0.984       2.745e-01         -0.5262
 289       6.993e+00      -1.034e+01       1.140e+00          -0.091           0.017           0.996       3.570e-01         -0.4357
 290       7.376e+00      -1.034e+01       1.164e+00          -0.040           0.045           0.998       4.209e-01         -0.3945
 291       7.812e+00      -1.034e+01       1.173e+00          -0.002           0.064           0.998       4.613e-01         -0.3727
 292       8.275e+00      -1.034e+01       1.164e+00           0.039           0.083           0.996       4.759e-01         -0.3575
 293       8.738e+00      -1.034e+01       1.134e+00           0.090           0.104           0.991       4.643e-01         -0.3102
 294       9.174e+00      -1.034e+01       1.086e+00           0.131           0.120           0.984       4.261e-01         -0.2209
 295       9.557e+00      -1.034e+01       1.030e+00           0.158           0.129           0.979       3.621e-01         -0.1297
 296       9.867e+00      -1.034e+01       9.775e-01           0.179           0.136           0.974       2.761e-01         -0.0546
 297       1.008e+01      -1.034e+01       9.359e-01           0.201           0.142           0.969       1.732e-01          0.0532
 298       1.019e+01      -1.035e+01       9.125e-01           0.214           0.145           0.966       5.911e-02          0.1329
Strip 12
 299       9.896e+00      -9.301e+00       8.205e-01          -0.175          -0.135          -0.975       6.795e-02          0.3220
 300       9.774e+00      -9.301e+00       8.347e-01          -0.095          -0.113          -0.989       1.972e-01          0.3525
 301       9.539e+00      -9.301e+00       8.376e-01           0.039          -0.073          -0.997       3.139e-01          0.3680
 302       9.203e+00      -9.302e+00       8.004e-01           0.163          -0.032          -0.986       4.184e-01          0.2848
 303       8.785e+00      -9.304e+00       7.194e-01           0.214          -0.013          -0.977       5.002e-01          0.1153
 304       8.311e+00      -9.306e+00       6.235e-01           0.184          -0.025          -0.983       5.452e-01         -0.1048
 305       7.808e+00      -9.308e+00       5.531e-01           0.094          -0.065          -0.993       5.551e-01         -0.2632
 306       7.304e+00      -9.308e+00       5.249e-01           0.017          -0.101          -0.995       5.378e-01         -0.2999
 307       6.830e+00      -9.308e+00       5.293e-01          -0.038          -0.128          -0.991       4.920e-01         -0.2945
 308       6.413e+00      -9.308e+00       5.560e-01          -0.093          -0.157          -0.983       4.189e-01         -0.2926
 309       6.076e+00      -9.307e+00       6.006e-01          -0.177          -0.203          -0.963       3.241e-01         -0.3041
 310       5.841e+00      -9.305e+00       6.647e-01          -0.367          -0.307          -0.878       2.211e-01         -0.2274
 311       5.719e+00      -9.303e+00       7.594e-01          -0.766          -0.503          -0.401       1.611e-01          0.5558
 312       5.719e+00      -9.300e+00       8.709e-01          -0.778          -0.437           0.451       1.508e-01          0.3661
 313       5.841e+00      -9.298e+00       9.628e-01          -0.377          -0.157           0.913       2.151e-01         -0.5651
 314       6.076e+00      -9.296e+00       1.026e+00          -0.174          -0.031           0.984       3.183e-01         -0.5185
 315       6.413e+00      -9.295e+00       1.069e+00          -0.091           0.017           0.996       4.141e-01         -0.4306
 316       6.830e+00      -9.295e+00       1.096e+00          -0.040           0.045           0.998       4.882e-01         -0.3910
 317       7.304e+00      -9.294e+00       1.105e+00          -0.002           0.064           0.998       5.352e-01         -0.3700
 318       7.808e+00      -9.295e+00       1.096e+00           0.039           0.083           0.996       5.522e-01         -0.3555
 319       8.311e+00      -9.295e+00       1.063e+00           0.090           0.104           0.991       5.388e-01         -0.3088
 320       8.785e+00      -9.297e+00       1.011e+00           0.131           0.120           0.984       4.945e-01         -0.2201
 321       9.203e+00      -9.298e+00       9.500e-01           0.158           0.129           0.979       4.202e-01         -0.1293
 322       9.539e+00      -9.299e+00       8.926e-01           0.179           0.136           0.974       3.204e-01         -0.0545
 323       9.774e+00      -9.301e+00       8.473e-01           0.200           0.142           0.969       2.011e-01          0.0531
 324       9.896e+00      -9.301e+00       8.218e-01           0.214           0.145           0.966       6.859e-02          0.1327
Strip 13
 325       9.579e+00      -8.194e+00       7.242e-01          -0.175          -0.135          -0.975       7.788e-02          0.3218
 326       9.447e+00      -8.193e+00       7.396e-01          -0.095          -0.113          -0.989       2.260e-01          0.3523
 327       9.191e+00      -8.193e+00       7.427e-01           0.039          -0.073          -0.997       3.597e-01          0.3679
 328       8.826e+00      -8.194e+00       7.023e-01           0.163          -0.032          -0.986       4.793e-01          0.2846
 329       8.373e+00      -8.196e+00       6.144e-01           0.214          -0.013          -0.977       5.729e-01          0.1147
 330       7.858e+00      -8.198e+00       5.102e-01           0.184          -0.025          -0.983       6.246e-01         -0.1061
 331       7.312e+00      -8.199e+00       4.338e-01           0.094          -0.065          -0.993       6.359e-01         -0.2651
 332       6.765e+00      -8.200e+00       4.032e-01           0.017          -0.101          -0.995       6.163e-01         -0.3023
 333       6.250e+00      -8.200e+00       4.079e-01          -0.038          -0.128          -0.991       5.638e-01         -0.2975
 334       5.797e+00      -8.199e+00       4.369e-01          -0.093          -0.157          -0.983       4.801e-01         -0.2966
 335       5.432e+00      -8.198e+00       4.854e-01          -0.177          -0.203          -0.963       3.715e-01         -0.3100
 336       5.176e+00      -8.197e+00       5.550e-01          -0.367          -0.307          -0.878       2.536e-01         -0.2378
 337       5.045e+00      -8.195e+00       6.578e-01          -0.765          -0.503          -0.402       1.848e-01          0.5484
 338       5.045e+00      -8.193e+00       7.789e-01          -0.779          -0.437           0.450       1.727e-01          0.3769
 339       5.176e+00      -8.191e+00       8.788e-01          -0.378          -0.157           0.912       2.463e-01         -0.5507
 340       5.432e+00      -8.189e+00       9.474e-01          -0.174          -0.031           0.984       3.646e-01         -0.5096
 341       5.797e+00      -8.188e+00       9.943e-01          -0.091           0.017           0.996       4.744e-01         -0.4248
 342       6.250e+00      -8.188e+00       1.023e+00          -0.040           0.045           0.998       5.594e-01         -0.3868
 343       6.765e+00      -8.188e+00       1.033e+00          -0.002           0.064           0.998       6.133e-01         -0.3669
 344       7.312e+00      -8.188e+00       1.023e+00           0.039           0.083           0.996       6.328e-01         -0.3531
 345       7.858e+00      -8.188e+00       9.880e-01           0.090           0.104           0.991       6.175e-01         -0.3072
 346       8.373e+00      -8.190e+00       9.310e-01           0.131           0.120           0.984       5.668e-01         -0.2191
 347       8.826e+00      -8.191e+00       8.649e-01           0.158           0.129           0.979       4.817e-01         -0.1289
 348       9.191e+00      -8.192e+00       8.025e-01           0.179           0.136           0.974       3.673e-01         -0.0544
 349       9.447e+00      -8.193e+00       7.533e-01           0.200           0.142           0.969       2.304e-01          0.0529
 350       9.579e+00      -8.194e+00       7.256e-01           0.214           0.145           0.966       7.862e-02          0.1324
Strip 14
 351       9.245e+00      -7.030e+00       6.230e-01          -0.175          -0.135          -0.975       8.821e-02          0.3214
 352       9.103e+00      -7.030e+00       6.397e-01          -0.095          -0.113          -0.989       2.560e-01          0.3520
 353       8.826e+00      -7.030e+00       6.431e-01           0.039          -0.073          -0.997       4.073e-01          0.3676
 354       8.430e+00      -7.031e+00       5.993e-01           0.163          -0.032          -0.986       5.427e-01          0.2842
 355       7.940e+00      -7.032e+00       5.040e-01           0.214          -0.013          -0.977       6.486e-01          0.1138
 356       7.382e+00      -7.034e+00       3.912e-01           0.184          -0.025          -0.983       7.071e-01         -0.1077
 357       6.791e+00      -7.035e+00       3.085e-01           0.094          -0.065          -0.993       7.200e-01         -0.2673
 358       6.199e+00      -7.036e+00       2.753e-01           0.017          -0.101          -0.995       6.979e-01         -0.3049
 359       5.641e+00      -7.035e+00       2.804e-01          -0.038          -0.128          -0.991       6.385e-01         -0.3007
 360       5.151e+00      -7.035e+00       3.118e-01          -0.093          -0.157          -0.983       5.438e-01         -0.3008
 361       4.756e+00      -7.034e+00       3.643e-01          -0.177          -0.203          -0.963       4.209e-01         -0.3163
 362       4.478e+00      -7.033e+00       4.397e-01          -0.367          -0.307          -0.878       2.874e-01         -0.2487
 363       4.336e+00      -7.031e+00       5.511e-01          -0.764          -0.503          -0.404       2.095e-01          0.5404
 364       4.336e+00      -7.029e+00       6.822e-01          -0.780          -0.438           0.448       1.954e-01          0.3884
 365       4.478e+00      -7.028e+00       7.904e-01          -0.378          -0.158           0.912       2.786e-01         -0.5346
 366       4.756e+00      -7.026e+00       8.648e-01          -0.174          -0.031           0.984       4.127e-01         -0.4996
 367       5.151e+00      -7.026e+00       9.156e-01          -0.091           0.017           0.996       5.371e-01         -0.4182
 368       5.641e+00      -7.025e+00       9.468e-01          -0.040           0.045           0.998       6.334e-01         -0.3820
 369       6.199e+00      -7.025e+00       9.579e-01          -0.002           0.064           0.998       6.945e-01         -0.3634
 370       6.791e+00      -7.025e+00       9.467e-01           0.039           0.083           0.996       7.166e-01         -0.3506
 371       7.382e+00      -7.026e+00       9.087e-01           0.090           0.104           0.991       6.994e-01         -0.3054
 372       7.940e+00      -7.027e+00       8.470e-01           0.131           0.120           0.984       6.419e-01         -0.2180
 373       8.430e+00      -7.028e+00       7.754e-01           0.158           0.129           0.979       5.456e-01         -0.1284
 374       8.826e+00      -7.029e+00       7.078e-01           0.179           0.136           0.974       4.160e-01         -0.0543
 375       9.103e+00      -7.030e+00       6.545e-01           0.200           0.142           0.969       2.610e-01          0.0527
 376       9.245e+00      -7.030e+00       6.246e-01           0.214           0.145           0.966       8.906e-02          0.1320
Strip 15
 377       8.898e+00      -5.819e+00       5.177e-01          -0.175          -0.135          -0.975       9.877e-02          0.3209
 378       8.744e+00      -5.818e+00       5.356e-01          -0.095          -0.113          -0.989       2.866e-01          0.3515
 379       8.445e+00      -5.818e+00       5.393e-01           0.039          -0.073          -0.997       4.559e-01          0.3670
 380       8.019e+00      -5.819e+00       4.921e-01           0.163          -0.032          -0.986       6.075e-01          0.2834
 381       7.489e+00      -5.820e+00       3.892e-01           0.214          -0.013          -0.977       7.259e-01          0.1126
 382       6.887e+00      -5.822e+00       2.673e-01           0.184          -0.025          -0.983       7.914e-01         -0.1096
 383       6.248e+00      -5.823e+00       1.779e-01           0.094          -0.065          -0.993       8.060e-01         -0.2698
 384       5.609e+00      -5.823e+00       1.421e-01           0.017          -0.101          -0.995       7.813e-01         -0.3078
 385       5.007e+00      -5.823e+00       1.477e-01          -0.038          -0.128          -0.991       7.149e-01         -0.3039
 386       4.478e+00      -5.823e+00       1.815e-01          -0.093          -0.157          -0.983       6.090e-01         -0.3049
 387       4.051e+00      -5.822e+00       2.382e-01          -0.177          -0.203          -0.963       4.714e-01         -0.3225
 388       3.752e+00      -5.821e+00       3.197e-01          -0.366          -0.307          -0.879       3.220e-01         -0.2599
 389       3.598e+00      -5.820e+00       4.400e-01          -0.764          -0.502          -0.405       2.347e-01          0.5320
 390       3.598e+00      -5.818e+00       5.816e-01          -0.780          -0.438           0.447       2.186e-01          0.4004
 391       3.752e+00      -5.816e+00       6.985e-01          -0.378          -0.158           0.912       3.117e-01         -0.5164
 392       4.051e+00      -5.815e+00       7.788e-01          -0.174          -0.031           0.984       4.619e-01         -0.4880
 393       4.478e+00      -5.815e+00       8.336e-01          -0.091           0.017           0.996       6.012e-01         -0.4105
 394       5.007e+00      -5.814e+00       8.673e-01          -0.040           0.045           0.998       7.091e-01         -0.3766
 395       5.609e+00      -5.814e+00       8.793e-01          -0.002           0.064           0.998       7.775e-01         -0.3595
 396       6.248e+00      -5.814e+00       8.673e-01           0.039           0.083           0.996       8.024e-01         -0.3478
 397       6.887e+00      -5.815e+00       8.262e-01           0.090           0.104           0.991       7.831e-01         -0.3036
 398       7.489e+00      -5.816e+00       7.596e-01           0.131           0.120           0.984       7.188e-01         -0.2172
 399       8.019e+00      -5.817e+00       6.822e-01           0.158           0.129           0.979       6.109e-01         -0.1281
 400       8.445e+00      -5.818e+00       6.092e-01           0.179           0.136           0.974       4.658e-01         -0.0544
 401       8.744e+00      -5.818e+00       5.517e-01           0.200           0.142           0.969       2.923e-01          0.0523
 402       8.898e+00      -5.819e+00       5.193e-01           0.214           0.145           0.966       9.972e-02          0.1314
Strip 16
 403       8.540e+00      -4.567e+00       4.089e-01          -0.175          -0.135          -0.975       1.094e-01          0.3199
 404       8.374e+00      -4.567e+00       4.282e-01          -0.095          -0.113          -0.989       3.174e-01          0.3506
 405       8.052e+00      -4.567e+00       4.322e-01           0.039          -0.073          -0.997       5.048e-01          0.3660
 406       7.593e+00      -4.568e+00       3.813e-01           0.163          -0.032          -0.986       6.725e-01          0.2822
 407       7.023e+00      -4.569e+00       2.705e-01           0.214          -0.013          -0.977       8.035e-01          0.1107
 408       6.375e+00      -4.570e+00       1.394e-01           0.184          -0.025          -0.983       8.760e-01         -0.1124
 409       5.688e+00      -4.571e+00       4.312e-02           0.094          -0.065          -0.993       8.923e-01         -0.2730
 410       5.000e+00      -4.571e+00       4.559e-03           0.017          -0.101          -0.995       8.650e-01         -0.3109
 411       4.352e+00      -4.571e+00       1.053e-02          -0.038          -0.128          -0.991       7.916e-01         -0.3068
 412       3.782e+00      -4.570e+00       4.697e-02          -0.093          -0.157          -0.983       6.743e-01         -0.3081
 413       3.323e+00      -4.570e+00       1.080e-01          -0.177          -0.203          -0.963       5.221e-01         -0.3273
 414       3.001e+00      -4.569e+00       1.957e-01          -0.366          -0.306          -0.879       3.567e-01         -0.2701
 415       2.835e+00      -4.568e+00       3.252e-01          -0.763          -0.502          -0.406       2.600e-01          0.5234
 416       2.835e+00      -4.567e+00       4.777e-01          -0.781          -0.439           0.445       2.419e-01          0.4135
 417       3.001e+00      -4.566e+00       6.035e-01          -0.379          -0.158           0.912       3.449e-01         -0.4945
 418       3.323e+00      -4.565e+00       6.900e-01          -0.174          -0.031           0.984       5.113e-01         -0.4736
 419       3.782e+00      -4.564e+00       7.490e-01          -0.091           0.017           0.996       6.655e-01         -0.4008
 420       4.352e+00      -4.564e+00       7.852e-01          -0.040           0.045           0.998       7.851e-01         -0.3699
 421       5.000e+00      -4.564e+00       7.981e-01          -0.002           0.064           0.998       8.609e-01         -0.3550
 422       5.688e+00      -4.564e+00       7.852e-01           0.039           0.083           0.996       8.884e-01         -0.3450
 423       6.375e+00      -4.564e+00       7.410e-01           0.090           0.104           0.991       8.672e-01         -0.3023
 424       7.023e+00      -4.565e+00       6.693e-01           0.131           0.120           0.984       7.960e-01         -0.2168
 425       7.593e+00      -4.566e+00       5.860e-01           0.158           0.129           0.979       6.765e-01         -0.1284
 426       8.052e+00      -4.566e+00       5.074e-01           0.179           0.136           0.974       5.159e-01         -0.0550
 427       8.374e+00      -4.567e+00       4.455e-01           0.200           0.142           0.969       3.237e-01          0.0514
 428       8.540e+00      -4.567e+00       4.107e-01           0.214           0.145           0.966       1.104e-01          0.1303
Strip 17
 429       8.173e+00      -3.285e+00       2.973e-01          -0.174          -0.135          -0.975       1.198e-01          0.3183
 430       7.995e+00      -3.285e+00       3.181e-01          -0.095          -0.113          -0.989       3.476e-01          0.3489
 431       7.650e+00      -3.285e+00       3.224e-01           0.039          -0.073          -0.997       5.529e-01          0.3642
 432       7.157e+00      -3.285e+00       2.678e-01           0.163          -0.032          -0.986       7.364e-01          0.2797
 433       6.546e+00      -3.286e+00       1.489e-01           0.214          -0.013          -0.977       8.799e-01          0.1070
 434       5.851e+00      -3.287e+00       8.212e-03           0.184          -0.025          -0.983       9.593e-01         -0.1171
 435       5.113e+00      -3.287e+00      -9.505e-02           0.094          -0.065          -0.993       9.771e-01         -0.2775
 436       4.376e+00      -3.287e+00      -1.364e-01           0.017          -0.101          -0.995       9.474e-01         -0.3137
 437       3.681e+00      -3.287e+00      -1.300e-01          -0.038          -0.128          -0.991       8.671e-01         -0.3080
 438       3.070e+00      -3.287e+00      -9.092e-02          -0.093          -0.157          -0.983       7.387e-01         -0.3082
 439       2.577e+00      -3.287e+00      -2.540e-02          -0.177          -0.203          -0.963       5.720e-01         -0.3281
 440       2.232e+00      -3.286e+00       6.867e-02          -0.366          -0.306          -0.879       3.909e-01         -0.2764
 441       2.054e+00      -3.285e+00       2.076e-01          -0.763          -0.502          -0.408       2.850e-01          0.5160
 442       2.054e+00      -3.284e+00       3.712e-01          -0.781          -0.439           0.444       2.648e-01          0.4291
 443       2.232e+00      -3.284e+00       5.061e-01          -0.379          -0.158           0.912       3.776e-01         -0.4658
 444       2.577e+00      -3.283e+00       5.989e-01          -0.174          -0.031           0.984       5.598e-01         -0.4535
 445       3.070e+00      -3.283e+00       6.622e-01          -0.091           0.017           0.996       7.288e-01         -0.3873
 446       3.681e+00      -3.282e+00       7.011e-01          -0.040           0.045           0.998       8.598e-01         -0.3609
 447       4.376e+00      -3.282e+00       7.150e-01          -0.002           0.064           0.998       9.429e-01         -0.3496
 448       5.113e+00      -3.282e+00       7.011e-01           0.039           0.083           0.996       9.731e-01         -0.3427
 449       5.851e+00      -3.283e+00       6.537e-01           0.090           0.104           0.991       9.499e-01         -0.3022
 450       6.546e+00      -3.283e+00       5.767e-01           0.131           0.120           0.984       8.720e-01         -0.2181
 451       7.157e+00      -3.284e+00       4.874e-01           0.158           0.129           0.979       7.411e-01         -0.1302
 452       7.650e+00      -3.284e+00       4.031e-01           0.179           0.136           0.974       5.651e-01         -0.0568
 453       7.995e+00      -3.285e+00       3.366e-01           0.200           0.142           0.969       3.546e-01          0.0496
 454       8.173e+00      -3.285e+00       2.993e-01           0.214           0.145           0.966       1.210e-01          0.1284
Strip 18
 455       7.799e+00      -1.980e+00       1.838e-01          -0.174          -0.135          -0.975       1.299e-01          0.3157
 456       7.609e+00      -1.980e+00       2.060e-01          -0.095          -0.113          -0.989       3.768e-01          0.3459
 457       7.240e+00      -1.980e+00       2.106e-01           0.039          -0.073          -0.997       5.991e-01          0.3604
 458       6.713e+00      -1.980e+00       1.522e-01           0.163          -0.032          -0.986       7.979e-01          0.2738
 459       6.060e+00      -1.980e+00       2.517e-02           0.214          -0.013          -0.977       9.534e-01          0.0983
 460       5.317e+00      -1.981e+00      -1.252e-01           0.184          -0.025          -0.983       1.039e+00         -0.1271
 461       4.529e+00      -1.981e+00      -2.356e-01           0.094          -0.065          -0.993       1.059e+00         -0.2844
 462       3.741e+00      -1.981e+00      -2.799e-01           0.017          -0.101          -0.995       1.027e+00         -0.3145
 463       2.998e+00      -1.981e+00      -2.730e-01          -0.038          -0.128          -0.991       9.397e-01         -0.3026
 464       2.345e+00      -1.981e+00      -2.312e-01          -0.093          -0.157          -0.983       8.006e-01         -0.2983
 465       1.818e+00      -1.981e+00      -1.612e-01          -0.177          -0.203          -0.963       6.200e-01         -0.3166
 466       1.449e+00      -1.981e+00      -6.061e-02          -0.366          -0.306          -0.879       4.239e-01         -0.2708
 467       1.259e+00      -1.980e+00       8.792e-02          -0.762          -0.502          -0.409       3.090e-01          0.5154
 468       1.259e+00      -1.980e+00       2.628e-01          -0.781          -0.439           0.443       2.868e-01          0.4539
 469       1.449e+00      -1.979e+00       4.071e-01          -0.379          -0.158           0.912       4.089e-01         -0.4200
 470       1.818e+00      -1.979e+00       5.063e-01          -0.174          -0.031           0.984       6.065e-01         -0.4195
 471       2.345e+00      -1.979e+00       5.740e-01          -0.091           0.017           0.996       7.897e-01         -0.3638
 472       2.998e+00      -1.979e+00       6.155e-01          -0.040           0.045           0.998       9.317e-01         -0.3458
 473       3.741e+00      -1.978e+00       6.303e-01          -0.002           0.064           0.998       1.022e+00         -0.3421
 474       4.529e+00      -1.979e+00       6.155e-01           0.039           0.083           0.996       1.055e+00         -0.3417
 475       5.317e+00      -1.979e+00       5.648e-01           0.090           0.104           0.991       1.030e+00         -0.3059
 476       6.060e+00      -1.979e+00       4.825e-01           0.131           0.120           0.984       9.451e-01         -0.2239
 477       6.713e+00      -1.979e+00       3.870e-01           0.158           0.129           0.979       8.032e-01         -0.1357
 478       7.240e+00      -1.980e+00       2.969e-01           0.179           0.136           0.974       6.125e-01         -0.0612
 479       7.609e+00      -1.980e+00       2.259e-01           0.200           0.142           0.969       3.843e-01          0.0459
 480       7.799e+00      -1.980e+00       1.859e-01           0.214           0.145           0.966       1.311e-01          0.1251
Strip 19
 481       7.422e+00      -6.615e-01       6.918e-02          -0.174          -0.135          -0.975       1.393e-01          0.3132
 482       7.219e+00      -6.615e-01       9.281e-02          -0.095          -0.113          -0.989       4.041e-01          0.3425
 483       6.826e+00      -6.615e-01       9.769e-02           0.039          -0.073          -0.997       6.425e-01          0.3519
 484       6.265e+00      -6.615e-01       3.553e-02           0.163          -0.032          -0.986       8.556e-01          0.2549
 485       5.569e+00      -6.617e-01      -9.985e-02           0.214          -0.013          -0.977       1.022e+00          0.0691
 486       4.778e+00      -6.618e-01      -2.601e-01           0.184          -0.025          -0.983       1.114e+00         -0.1545
 487       3.939e+00      -6.619e-01      -3.777e-01           0.094          -0.065          -0.993       1.135e+00         -0.2943
 488       3.099e+00      -6.620e-01      -4.248e-01           0.017          -0.101          -0.995       1.101e+00         -0.3031
 489       2.308e+00      -6.620e-01      -4.175e-01          -0.038          -0.128          -0.991       1.008e+00         -0.2733
 490       1.612e+00      -6.619e-01      -3.730e-01          -0.093          -0.157          -0.983       8.587e-01         -0.2533
 491       1.051e+00      -6.619e-01      -2.984e-01          -0.177          -0.203          -0.963       6.651e-01         -0.2567
 492       6.584e-01      -6.618e-01      -1.912e-01          -0.365          -0.306          -0.879       4.548e-01         -0.2166
 493       4.560e-01      -6.616e-01      -3.300e-02          -0.762          -0.502          -0.409       3.315e-01          0.5194
 494       4.560e-01      -6.614e-01       1.533e-01          -0.782          -0.440           0.442       3.075e-01          0.5009
 495       6.584e-01      -6.612e-01       3.070e-01          -0.379          -0.158           0.912       4.384e-01         -0.3026
 496       1.051e+00      -6.611e-01       4.127e-01          -0.174          -0.032           0.984       6.503e-01         -0.3328
 497       1.612e+00      -6.611e-01       4.848e-01          -0.091           0.017           0.996       8.468e-01         -0.3112
 498       2.308e+00      -6.610e-01       5.291e-01          -0.040           0.045           0.998       9.991e-01         -0.3147
 499       3.099e+00      -6.610e-01       5.448e-01          -0.002           0.064           0.998       1.096e+00         -0.3281
 500       3.939e+00      -6.610e-01       5.290e-01           0.039           0.083           0.996       1.131e+00         -0.3435
 501       4.778e+00      -6.611e-01       4.750e-01           0.090           0.104           0.991       1.104e+00         -0.3217
 502       5.569e+00      -6.612e-01       3.874e-01           0.131           0.120           0.984       1.014e+00         -0.2463
 503       6.265e+00      -6.613e-01       2.856e-01           0.158           0.129           0.979       8.615e-01         -0.1554
 504       6.826e+00      -6.614e-01       1.896e-01           0.179           0.136           0.974       6.569e-01         -0.0746
 505       7.219e+00      -6.614e-01       1.139e-01           0.200           0.142           0.969       4.122e-01          0.0377
 506       7.422e+00      -6.615e-01       7.138e-02           0.214           0.145           0.966       1.406e-01          0.1198
Strip 20
 507       7.422e+00       6.615e-01       6.918e-02          -0.174           0.135          -0.975       1.393e-01          0.3132
 508       7.219e+00       6.615e-01       9.281e-02          -0.095           0.113          -0.989       4.041e-01          0.3425
 509       6.826e+00       6.615e-01       9.769e-02           0.039           0.073          -0.997       6.425e-01          0.3519
 510       6.265e+00       6.615e-01       3.553e-02           0.163           0.032          -0.986       8.556e-01          0.2549
 511       5.569e+00       6.617e-01      -9.985e-02           0.214           0.013          -0.977       1.022e+00          0.0691
 512       4.778e+00       6.618e-01      -2.601e-01           0.184           0.025          -0.983       1.114e+00         -0.1545
 513       3.939e+00       6.619e-01      -3.777e-01           0.094           0.065          -0.993       1.135e+00         -0.2943
 514       3.099e+00       6.620e-01      -4.248e-01           0.017           0.101          -0.995       1.101e+00         -0.3031
 515       2.308e+00       6.620e-01      -4.175e-01          -0.038           0.128          -0.991       1.008e+00         -0.2733
 516       1.612e+00       6.619e-01      -3.730e-01          -0.093           0.157          -0.983       8.587e-01         -0.2533
 517       1.051e+00       6.619e-01      -2.984e-01          -0.177           0.203          -0.963       6.651e-01         -0.2567
 518       6.584e-01       6.618e-01      -1.912e-01          -0.365           0.306          -0.879       4.548e-01         -0.2166
 519       4.560e-01       6.616e-01      -3.300e-02          -0.762           0.502          -0.409       3.315e-01          0.5194
 520       4.560e-01       6.614e-01       1.533e-01          -0.782           0.440           0.442       3.075e-01          0.5009
 521       6.584e-01       6.612e-01       3.070e-01          -0.379           0.158           0.912       4.384e-01         -0.3026
 522       1.051e+00       6.611e-01       4.127e-01          -0.174           0.032           0.984       6.503e-01         -0.3328
 523       1.612e+00       6.611e-01       4.848e-01          -0.091          -0.017           0.996       8.468e-01         -0.3112
 524       2.308e+00       6.610e-01       5.291e-01          -0.040          -0.045           0.998       9.991e-01         -0.3147
 525       3.099e+00       6.610e-01       5.448e-01          -0.002          -0.064           0.998       1.096e+00         -0.3281
 526       3.939e+00       6.610e-01       5.290e-01           0.039          -0.083           0.996       1.131e+00         -0.3435
 527       4.778e+00       6.611e-01       4.750e-01           0.090          -0.104           0.991       1.104e+00         -0.3217
 528       5.569e+00       6.612e-01       3.874e-01           0.131          -0.120           0.984       1.014e+00         -0.2463
 529       6.265e+00       6.613e-01       2.856e-01           0.158          -0.129           0.979       8.615e-01         -0.1554
 530       6.826e+00       6.614e-01       1.896e-01           0.179          -0.136           0.974       6.569e-01         -0.0746
 531       7.219e+00       6.614e-01       1.139e-01           0.200          -0.142           0.969       4.122e-01          0.0377
 532       7.422e+00       6.615e-01       7.138e-02           0.214          -0.145           0.966       1.406e-01          0.1198
Strip 21
 533       7.799e+00       1.980e+00       1.838e-01          -0.174           0.135          -0.975       1.299e-01          0.3157
 534       7.609e+00       1.980e+00       2.060e-01          -0.095           0.113          -0.989       3.768e-01          0.3459
 535       7.240e+00       1.980e+00       2.106e-01           0.039           0.073          -0.997       5.991e-01          0.3604
 536       6.713e+00       1.980e+00       1.522e-01           0.163           0.032          -0.986       7.979e-01          0.2738
 537       6.060e+00       1.980e+00       2.517e-02           0.214           0.013          -0.977       9.534e-01          0.0983
 538       5.317e+00       1.981e+00      -1.252e-01           0.184           0.025          -0.983       1.039e+00         -0.1271
 539       4.529e+00       1.981e+00      -2.356e-01           0.094           0.065          -0.993       1.059e+00         -0.2844
 540       3.741e+00       1.981e+00      -2.799e-01           0.017           0.101          -0.995       1.027e+00         -0.3145
 541       2.998e+00       1.981e+00      -2.730e-01          -0.038           0.128          -0.991       9.397e-01         -0.3026
 542       2.345e+00       1.981e+00      -2.312e-01          -0.093           0.157          -0.983       8.006e-01         -0.2983
 543       1.818e+00       1.981e+00      -1.612e-01          -0.177           0.203          -0.963       6.200e-01         -0.3166
 544       1.449e+00       1.981e+00      -6.061e-02          -0.366           0.306          -0.879       4.239e-01         -0.2708
 545       1.259e+00       1.980e+00       8.792e-02          -0.762           0.502          -0.409       3.090e-01          0.5154
 546       1.259e+00       1.980e+00       2.628e-01          -0.781           0.439           0.443       2.868e-01          0.4539
 547       1.449e+00       1.979e+00       4.071e-01          -0.379           0.158           0.912       4.089e-01         -0.4200
 548       1.818e+00       1.979e+00       5.063e-01          -0.174           0.031           0.984       6.065e-01         -0.4195
 549       2.345e+00       1.979e+00       5.740e-01          -0.091          -0.017           0.996       7.897e-01         -0.3638
 550       2.998e+00       1.979e+00       6.155e-01          -0.040          -0.045           0.998       9.317e-01         -0.3458
 551       3.741e+00       1.978e+00       6.303e-01          -0.002          -0.064           0.998       1.022e+00         -0.3421
 552       4.529e+00       1.979e+00       6.155e-01           0.039          -0.083           0.996       1.055e+00         -0.3417
 553       5.317e+00       1.979e+00       5.648e-01           0.090          -0.104           0.991       1.030e+00         -0.3059
 554       6.060e+00       1.979e+00       4.825e-01           0.131          -0.120           0.984       9.451e-01         -0.2239
 555       6.713e+00       1.979e+00       3.870e-01           0.158          -0.129           0.979       8.032e-01         -0.1357
 556       7.240e+00       1.980e+00       2.969e-01           0.179          -0.136           0.974       6.125e-01         -0.0612
 557       7.609e+00       1.980e+00       2.259e-01           0.200          -0.142           0.969       3.843e-01          0.0459
 558       7.799e+00       1.980e+00       1.859e-01           0.214          -0.145           0.966       1.311e-01          0.1251
Strip 22
 559       8.173e+00       3.285e+00       2.973e-01          -0.174           0.135          -0.975       1.198e-01          0.3183
 560       7.995e+00       3.285e+00       3.181e-01          -0.095           0.113          -0.989       3.476e-01          0.3489
 561       7.650e+00       3.285e+00       3.224e-01           0.039           0.073          -0.997       5.529e-01          0.3642
 562       7.157e+00       3.285e+00       2.678e-01           0.163           0.032          -0.986       7.364e-01          0.2797
 563       6.546e+00       3.286e+00       1.489e-01           0.214           0.013          -0.977       8.799e-01          0.1070
 564       5.851e+00       3.287e+00       8.212e-03           0.184           0.025          -0.983       9.593e-01         -0.1171
 565       5.113e+00       3.287e+00      -9.505e-02           0.094           0.065          -0.993       9.771e-01         -0.2775
 566       4.376e+00       3.287e+00      -1.364e-01           0.017           0.101          -0.995       9.474e-01         -0.3137
 567       3.681e+00       3.287e+00      -1.300e-01          -0.038           0.128          -0.991       8.671e-01         -0.3080
 568       3.070e+00       3.287e+00      -9.092e-02          -0.093           0.157          -0.983       7.387e-01         -0.3082
[...]
 852       9.776e+00       1.439e+01       1.083e+00           0.017           0.101          -0.995       1.764e-01         -0.2939
 853       9.488e+00       1.439e+01       1.086e+00          -0.038           0.128          -0.991       1.611e-01         -0.2874
 854       9.235e+00       1.439e+01       1.102e+00          -0.094           0.158          -0.983       1.370e-01         -0.2822
 855       9.030e+00       1.439e+01       1.129e+00          -0.178           0.204          -0.963       1.058e-01         -0.2867
 856       8.887e+00       1.439e+01       1.168e+00          -0.370           0.309          -0.876       7.193e-02         -0.1962
 857       8.814e+00       1.438e+01       1.225e+00          -0.772           0.505          -0.386       5.242e-02          0.5812
 858       8.814e+00       1.438e+01       1.293e+00          -0.772           0.432           0.466       4.981e-02          0.3212
 859       8.887e+00       1.438e+01       1.348e+00          -0.374           0.155           0.914       7.104e-02         -0.6045
 860       9.030e+00       1.437e+01       1.387e+00          -0.173           0.031           0.984       1.047e-01         -0.5400
 861       9.235e+00       1.437e+01       1.413e+00          -0.091          -0.017           0.996       1.360e-01         -0.4423
 862       9.488e+00       1.437e+01       1.429e+00          -0.040          -0.045           0.998       1.602e-01         -0.3958
 863       9.776e+00       1.437e+01       1.435e+00          -0.002          -0.064           0.998       1.754e-01         -0.3693
 864       1.008e+01       1.437e+01       1.429e+00           0.039          -0.083           0.996       1.809e-01         -0.3505
 865       1.039e+01       1.437e+01       1.409e+00           0.090          -0.104           0.990       1.764e-01         -0.3013
 866       1.068e+01       1.437e+01       1.378e+00           0.131          -0.120           0.984       1.618e-01         -0.2114
 867       1.093e+01       1.438e+01       1.341e+00           0.159          -0.129           0.979       1.375e-01         -0.1209
 868       1.113e+01       1.438e+01       1.306e+00           0.180          -0.136           0.974       1.048e-01         -0.0471
 869       1.128e+01       1.438e+01       1.278e+00           0.201          -0.142           0.969       6.576e-02          0.0590
 870       1.135e+01       1.438e+01       1.263e+00           0.215          -0.145           0.966       2.243e-02          0.1376
Strip 34
 871       1.150e+01       1.491e+01       1.308e+00          -0.175           0.135          -0.975       1.715e-02          0.3245
 872       1.143e+01       1.491e+01       1.316e+00          -0.095           0.113          -0.989       4.983e-02          0.3536
 873       1.130e+01       1.491e+01       1.318e+00           0.039           0.073          -0.997       7.944e-02          0.3676
 874       1.111e+01       1.491e+01       1.297e+00           0.162           0.032          -0.986       1.061e-01          0.2851
 875       1.087e+01       1.492e+01       1.251e+00           0.213           0.013          -0.977       1.270e-01          0.1186
 876       1.061e+01       1.492e+01       1.197e+00           0.183           0.026          -0.983       1.384e-01         -0.0977
 877       1.032e+01       1.492e+01       1.158e+00           0.093           0.065          -0.993       1.407e-01         -0.2547
 878       1.003e+01       1.492e+01       1.142e+00           0.017           0.101          -0.995       1.361e-01         -0.2928
 879       9.766e+00       1.492e+01       1.144e+00          -0.038           0.128          -0.991       1.243e-01         -0.2886
 880       9.530e+00       1.492e+01       1.159e+00          -0.094           0.158          -0.983       1.057e-01         -0.2850
 881       9.340e+00       1.492e+01       1.184e+00          -0.178           0.204          -0.963       8.161e-02         -0.2905
 882       9.206e+00       1.492e+01       1.221e+00          -0.371           0.309          -0.876       5.543e-02         -0.2018
 883       9.137e+00       1.491e+01       1.274e+00          -0.773           0.506          -0.383       4.040e-02          0.5779
 884       9.137e+00       1.491e+01       1.337e+00          -0.771           0.431           0.468       3.849e-02          0.3195
 885       9.206e+00       1.491e+01       1.389e+00          -0.374           0.155           0.915       5.490e-02         -0.5985
 886       9.340e+00       1.490e+01       1.424e+00          -0.173           0.031           0.984       8.088e-02         -0.5343
 887       9.530e+00       1.490e+01       1.449e+00          -0.091          -0.017           0.996       1.050e-01         -0.4361
 888       9.766e+00       1.490e+01       1.464e+00          -0.040          -0.045           0.998       1.236e-01         -0.3875
 889       1.003e+01       1.490e+01       1.469e+00          -0.002          -0.064           0.998       1.354e-01         -0.3582
 890       1.032e+01       1.490e+01       1.464e+00           0.039          -0.083           0.996       1.396e-01         -0.3374
 891       1.061e+01       1.490e+01       1.445e+00           0.090          -0.104           0.990       1.361e-01         -0.2879
 892       1.087e+01       1.490e+01       1.416e+00           0.131          -0.120           0.984       1.248e-01         -0.1998
 893       1.111e+01       1.491e+01       1.382e+00           0.159          -0.129           0.979       1.060e-01         -0.1120
 894       1.130e+01       1.491e+01       1.349e+00           0.180          -0.136           0.974       8.085e-02         -0.0411
 895       1.143e+01       1.491e+01       1.324e+00           0.201          -0.142           0.969       5.073e-02          0.0624
 896       1.150e+01       1.491e+01       1.309e+00           0.215          -0.145           0.966       1.730e-02          0.1396
Strip 35
 897       1.163e+01       1.534e+01       1.346e+00          -0.175           0.135          -0.975       1.267e-02          0.3211
 898       1.156e+01       1.534e+01       1.353e+00          -0.095           0.113          -0.989       3.681e-02          0.3497
 899       1.144e+01       1.534e+01       1.355e+00           0.039           0.073          -0.997       5.871e-02          0.3638
 900       1.126e+01       1.534e+01       1.335e+00           0.162           0.032          -0.986       7.842e-02          0.2835
 901       1.103e+01       1.535e+01       1.292e+00           0.213           0.013          -0.977       9.386e-02          0.1210
 902       1.078e+01       1.535e+01       1.241e+00           0.183           0.026          -0.983       1.023e-01         -0.0906
 903       1.051e+01       1.535e+01       1.204e+00           0.093           0.065          -0.993       1.040e-01         -0.2449
 904       1.024e+01       1.535e+01       1.189e+00           0.017           0.101          -0.995       1.006e-01         -0.2852
 905       9.991e+00       1.535e+01       1.191e+00          -0.038           0.128          -0.991       9.187e-02         -0.2867
 906       9.769e+00       1.535e+01       1.205e+00          -0.094           0.158          -0.983       7.809e-02         -0.2890
 907       9.589e+00       1.535e+01       1.229e+00          -0.178           0.204          -0.963       6.027e-02         -0.2985
 908       9.464e+00       1.535e+01       1.263e+00          -0.371           0.309          -0.876       4.091e-02         -0.2146
 909       9.399e+00       1.534e+01       1.313e+00          -0.774           0.506          -0.381       2.981e-02          0.5676
 910       9.399e+00       1.534e+01       1.373e+00          -0.770           0.430           0.471       2.848e-02          0.3173
 911       9.464e+00       1.534e+01       1.421e+00          -0.373           0.154           0.915       4.062e-02         -0.5889
 912       9.589e+00       1.533e+01       1.455e+00          -0.173           0.031           0.984       5.980e-02         -0.5246
 913       9.769e+00       1.533e+01       1.478e+00          -0.091          -0.017           0.996       7.759e-02         -0.4241
 914       9.991e+00       1.533e+01       1.492e+00          -0.040          -0.045           0.998       9.135e-02         -0.3699
 915       1.024e+01       1.533e+01       1.497e+00          -0.002          -0.064           0.998       1.000e-01         -0.3353
 916       1.051e+01       1.533e+01       1.492e+00           0.039          -0.083           0.996       1.031e-01         -0.3118
 917       1.078e+01       1.533e+01       1.475e+00           0.090          -0.104           0.990       1.005e-01         -0.2639
 918       1.103e+01       1.533e+01       1.447e+00           0.131          -0.120           0.984       9.220e-02         -0.1808
 919       1.126e+01       1.534e+01       1.415e+00           0.159          -0.129           0.979       7.833e-02         -0.0992
 920       1.144e+01       1.534e+01       1.384e+00           0.180          -0.136           0.974       5.972e-02         -0.0342
 921       1.156e+01       1.534e+01       1.360e+00           0.201          -0.142           0.969       3.747e-02          0.0642
 922       1.163e+01       1.534e+01       1.347e+00           0.215          -0.145           0.966       1.278e-02          0.1388
Strip 36
 923       1.172e+01       1.567e+01       1.374e+00          -0.175           0.135          -0.975       8.680e-03          0.3046
 924       1.166e+01       1.567e+01       1.381e+00          -0.095           0.113          -0.989       2.522e-02          0.3317
 925       1.154e+01       1.567e+01       1.383e+00           0.039           0.073          -0.997       4.024e-02          0.3462
 926       1.137e+01       1.567e+01       1.364e+00           0.162           0.032          -0.986       5.376e-02          0.2716
 927       1.115e+01       1.567e+01       1.323e+00           0.213           0.013          -0.977       6.435e-02          0.1196
 928       1.091e+01       1.567e+01       1.274e+00           0.183           0.026          -0.983       7.014e-02         -0.0785
 929       1.066e+01       1.568e+01       1.239e+00           0.093           0.065          -0.993       7.127e-02         -0.2222
 930       1.040e+01       1.568e+01       1.225e+00           0.017           0.101          -0.995       6.893e-02         -0.2610
 931       1.016e+01       1.568e+01       1.227e+00          -0.038           0.128          -0.991       6.295e-02         -0.2706
 932       9.949e+00       1.568e+01       1.240e+00          -0.094           0.158          -0.983       5.351e-02         -0.2879
 933       9.778e+00       1.568e+01       1.263e+00          -0.178           0.204          -0.963       4.128e-02         -0.3115
 934       9.659e+00       1.567e+01       1.295e+00          -0.372           0.309          -0.875       2.801e-02         -0.2403
 935       9.597e+00       1.567e+01       1.343e+00          -0.775           0.507          -0.379       2.041e-02          0.5388
 936       9.597e+00       1.566e+01       1.400e+00          -0.769           0.430           0.473       1.954e-02          0.3053
 937       9.659e+00       1.566e+01       1.446e+00          -0.373           0.154           0.915       2.787e-02         -0.5785
 938       9.778e+00       1.566e+01       1.478e+00          -0.173           0.031           0.985       4.100e-02         -0.5088
 939       9.949e+00       1.566e+01       1.500e+00          -0.091          -0.017           0.996       5.319e-02         -0.3983
 940       1.016e+01       1.565e+01       1.513e+00          -0.040          -0.045           0.998       6.261e-02         -0.3329
 941       1.040e+01       1.565e+01       1.518e+00          -0.002          -0.064           0.998       6.856e-02         -0.2933
 942       1.066e+01       1.565e+01       1.513e+00           0.039          -0.083           0.996       7.066e-02         -0.2708
 943       1.091e+01       1.566e+01       1.497e+00           0.090          -0.104           0.990       6.888e-02         -0.2286
 944       1.115e+01       1.566e+01       1.470e+00           0.131          -0.120           0.984       6.317e-02         -0.1556
 945       1.137e+01       1.566e+01       1.440e+00           0.159          -0.129           0.979       5.367e-02         -0.0857
 946       1.154e+01       1.566e+01       1.410e+00           0.180          -0.136           0.974       4.092e-02         -0.0318
 947       1.166e+01       1.567e+01       1.388e+00           0.201          -0.142           0.969       2.567e-02          0.0566
 948       1.172e+01       1.567e+01       1.375e+00           0.215          -0.145           0.966       8.757e-03          0.1259
Strip 37
 949       1.178e+01       1.588e+01       1.393e+00          -0.175           0.135          -0.975       5.057e-03          0.2472
 950       1.172e+01       1.588e+01       1.400e+00          -0.095           0.113          -0.989       1.470e-02          0.2693
 951       1.161e+01       1.588e+01       1.401e+00           0.039           0.073          -0.997       2.345e-02          0.2883
 952       1.144e+01       1.588e+01       1.383e+00           0.162           0.032          -0.986       3.134e-02          0.2313
 953       1.124e+01       1.589e+01       1.344e+00           0.213           0.013          -0.977       3.751e-02          0.1027
 954       1.100e+01       1.589e+01       1.297e+00           0.183           0.026          -0.983       4.089e-02         -0.0676
 955       1.076e+01       1.589e+01       1.262e+00           0.093           0.065          -0.993       4.154e-02         -0.1877
 956       1.051e+01       1.590e+01       1.249e+00           0.017           0.101          -0.995       4.017e-02         -0.2171
 957       1.028e+01       1.590e+01       1.251e+00          -0.038           0.128          -0.991       3.669e-02         -0.2276
 958       1.007e+01       1.589e+01       1.264e+00          -0.094           0.158          -0.983       3.118e-02         -0.2581
 959       9.905e+00       1.589e+01       1.286e+00          -0.178           0.204          -0.963       2.405e-02         -0.3144
 960       9.789e+00       1.589e+01       1.317e+00          -0.372           0.310          -0.875       1.631e-02         -0.2898
 961       9.730e+00       1.589e+01       1.363e+00          -0.775           0.507          -0.377       1.189e-02          0.4313
 962       9.730e+00       1.588e+01       1.418e+00          -0.769           0.429           0.474       1.140e-02          0.2337
 963       9.789e+00       1.588e+01       1.463e+00          -0.373           0.154           0.915       1.625e-02         -0.5693
 964       9.905e+00       1.588e+01       1.493e+00          -0.173           0.031           0.985       2.391e-02         -0.4682
 965       1.007e+01       1.587e+01       1.514e+00          -0.091          -0.017           0.996       3.101e-02         -0.3388
 966       1.028e+01       1.587e+01       1.527e+00          -0.040          -0.045           0.998       3.649e-02         -0.2716
 967       1.051e+01       1.587e+01       1.532e+00          -0.002          -0.064           0.998       3.996e-02         -0.2378
 968       1.076e+01       1.587e+01       1.527e+00           0.039          -0.083           0.996       4.118e-02         -0.2207
 969       1.100e+01       1.587e+01       1.512e+00           0.090          -0.104           0.990       4.013e-02         -0.1874
 970       1.124e+01       1.588e+01       1.486e+00           0.131          -0.120           0.984       3.681e-02         -0.1309
 971       1.144e+01       1.588e+01       1.456e+00           0.159          -0.129           0.979       3.127e-02         -0.0845
 972       1.161e+01       1.588e+01       1.428e+00           0.180          -0.136           0.974       2.384e-02         -0.0566
 973       1.172e+01       1.588e+01       1.406e+00           0.201          -0.142           0.969       1.496e-02          0.0093
 974       1.178e+01       1.588e+01       1.394e+00           0.215          -0.146           0.966       5.102e-03          0.0684
Strip 38
 975       1.181e+01       1.599e+01       1.402e+00          -0.175           0.135          -0.975       1.660e-03          0.1733
 976       1.175e+01       1.599e+01       1.409e+00          -0.095           0.113          -0.989       4.826e-03          0.1690
 977       1.164e+01       1.599e+01       1.411e+00           0.039           0.073          -0.997       7.700e-03          0.1745
 978       1.148e+01       1.599e+01       1.393e+00           0.162           0.032          -0.986       1.029e-02          0.1454
 979       1.128e+01       1.600e+01       1.354e+00           0.213           0.013          -0.977       1.232e-02          0.0615
 980       1.105e+01       1.600e+01       1.308e+00           0.183           0.026          -0.983       1.343e-02         -0.0605
 981       1.080e+01       1.600e+01       1.274e+00           0.093           0.065          -0.993       1.364e-02         -0.1482
 982       1.056e+01       1.601e+01       1.261e+00           0.017           0.101          -0.995       1.319e-02         -0.1704
 983       1.033e+01       1.601e+01       1.263e+00          -0.038           0.128          -0.991       1.205e-02         -0.1790
 984       1.013e+01       1.600e+01       1.275e+00          -0.094           0.158          -0.983       1.024e-02         -0.2031
 985       9.969e+00       1.600e+01       1.297e+00          -0.178           0.204          -0.963       7.894e-03         -0.2572
 986       9.855e+00       1.600e+01       1.328e+00          -0.372           0.310          -0.875       5.353e-03         -0.2642
 987       9.796e+00       1.600e+01       1.373e+00          -0.776           0.507          -0.376       3.901e-03          0.3343
 988       9.796e+00       1.599e+01       1.427e+00          -0.769           0.429           0.475       3.743e-03          0.1823
 989       9.855e+00       1.599e+01       1.471e+00          -0.372           0.154           0.915       5.339e-03         -0.4862
 990       9.969e+00       1.598e+01       1.501e+00          -0.173           0.030           0.985       7.851e-03         -0.3753
 991       1.013e+01       1.598e+01       1.522e+00          -0.091          -0.017           0.996       1.018e-02         -0.2659
 992       1.033e+01       1.598e+01       1.535e+00          -0.040          -0.045           0.998       1.198e-02         -0.2166
 993       1.056e+01       1.598e+01       1.539e+00          -0.002          -0.064           0.998       1.312e-02         -0.1912
 994       1.080e+01       1.598e+01       1.535e+00           0.039          -0.083           0.996       1.352e-02         -0.1759
 995       1.105e+01       1.598e+01       1.519e+00           0.090          -0.104           0.990       1.318e-02         -0.1460
 996       1.128e+01       1.599e+01       1.494e+00           0.131          -0.120           0.984       1.208e-02         -0.0966
 997       1.148e+01       1.599e+01       1.465e+00           0.159          -0.129           0.979       1.027e-02         -0.0615
 998       1.164e+01       1.599e+01       1.437e+00           0.180          -0.136           0.974       7.827e-03         -0.0611
 999       1.175e+01       1.599e+01       1.415e+00           0.201          -0.142           0.969       4.911e-03         -0.0356
1000       1.181e+01       1.599e+01       1.403e+00           0.215          -0.146           0.966       1.675e-03          0.0004










